5AXP_13_4LK_B_1003
          06102512283D 1   1.00000     0.00000     0
            
 51 55  0  0  0  0            999 V2000
  -37.5363  -35.5490  -11.1404 F   0  0  0  0  0  0  0  0  0  0  0  0
  -40.9329  -39.9965  -10.8959 O   0  0  0  0  0  0  0  0  0  0  0  0
  -37.7850  -31.2700   -6.6310 O   0  0  0  0  0  0  0  0  0  0  0  0
  -39.7098  -41.9008  -11.0908 O   0  0  0  0  0  0  0  0  0  0  0  0
  -37.3500  -31.2850   -9.3670 O   0  0  0  0  0  0  0  0  0  0  0  0
  -38.1280  -34.7660   -7.0890 N   0  0  0  0  0  0  0  0  0  0  0  0
  -38.3046  -34.2892   -2.8976 N   0  0  0  0  0  0  0  0  0  0  0  0
  -37.9276  -34.5365   -4.1656 N   0  0  0  0  0  0  0  0  0  0  0  0
  -37.9210  -34.8300   -8.4280 N   0  0  0  0  0  0  0  0  0  0  0  0
  -38.6729  -40.1020  -10.2676 N   0  0  0  0  0  0  0  0  0  0  0  0
  -37.8870  -36.4864  -10.2441 C   0  0  0  0  0  0  0  0  0  0  0  0
  -38.0510  -36.1540   -8.9100 C   0  0  0  0  0  0  0  0  0  0  0  0
  -37.1364  -35.6454   -4.4529 C   0  0  0  0  0  0  0  0  0  0  0  0
  -38.4511  -38.7763   -9.8173 C   0  0  0  0  0  0  0  0  0  0  0  0
  -38.0780  -37.7759  -10.6949 C   0  0  0  0  0  0  0  0  0  0  0  0
  -38.4233  -37.1615   -8.0403 C   0  0  0  0  0  0  0  0  0  0  0  0
  -38.6168  -38.4538   -8.4851 C   0  0  0  0  0  0  0  0  0  0  0  0
  -36.0073  -35.4895   -5.2243 C   0  0  0  0  0  0  0  0  0  0  0  0
  -37.4999  -36.8748   -3.9524 C   0  0  0  0  0  0  0  0  0  0  0  0
  -35.2295  -36.6002   -5.5105 C   0  0  0  0  0  0  0  0  0  0  0  0
  -36.7157  -37.9716   -4.2396 C   0  0  0  0  0  0  0  0  0  0  0  0
  -35.5840  -37.8375   -5.0175 C   0  0  0  0  0  0  0  0  0  0  0  0
  -39.8718  -40.5896  -10.7578 C   0  0  0  0  0  0  0  0  0  0  0  0
  -37.8110  -32.3440   -7.2270 C   0  0  0  0  0  0  0  0  0  0  0  0
  -37.5950  -32.4600   -8.6810 C   0  0  0  0  0  0  0  0  0  0  0  0
  -38.0770  -33.6250   -6.4820 C   0  0  0  0  0  0  0  0  0  0  0  0
  -38.3280  -33.5800   -5.0620 C   0  0  0  0  0  0  0  0  0  0  0  0
  -38.9800  -33.1306   -2.9774 C   0  0  0  0  0  0  0  0  0  0  0  0
  -37.6640  -33.7040   -9.1750 C   0  0  0  0  0  0  0  0  0  0  0  0
  -39.0209  -32.6560   -4.3140 C   0  0  0  0  0  0  0  0  0  0  0  0
  -38.3548  -42.3032  -10.8006 C   0  0  0  0  0  0  0  0  0  0  0  0
  -37.6405  -41.0989  -10.2417 C   0  0  0  0  0  0  0  0  0  0  0  0
  -37.1715  -31.6149  -10.7412 C   0  0  0  0  0  0  0  0  0  0  0  0
  -37.9456  -37.9883  -11.6631 H   0  0  0  0  0  0  0  0  0  0  0  0
  -38.5547  -36.9506   -7.0717 H   0  0  0  0  0  0  0  0  0  0  0  0
  -38.8804  -39.1656   -7.8341 H   0  0  0  0  0  0  0  0  0  0  0  0
  -35.7519  -34.5878   -5.5732 H   0  0  0  0  0  0  0  0  0  0  0  0
  -38.3204  -36.9710   -3.3889 H   0  0  0  0  0  0  0  0  0  0  0  0
  -34.4101  -36.5038   -6.0754 H   0  0  0  0  0  0  0  0  0  0  0  0
  -36.9688  -38.8705   -3.8818 H   0  0  0  0  0  0  0  0  0  0  0  0
  -35.0211  -38.6379   -5.2236 H   0  0  0  0  0  0  0  0  0  0  0  0
  -39.3986  -32.6643   -2.1981 H   0  0  0  0  0  0  0  0  0  0  0  0
  -37.5182  -33.8220  -10.1572 H   0  0  0  0  0  0  0  0  0  0  0  0
  -39.4623  -31.8217   -4.6444 H   0  0  0  0  0  0  0  0  0  0  0  0
  -37.9026  -42.6118  -11.6374 H   0  0  0  0  0  0  0  0  0  0  0  0
  -38.3542  -43.0440  -10.1288 H   0  0  0  0  0  0  0  0  0  0  0  0
  -37.3203  -41.2664   -9.3093 H   0  0  0  0  0  0  0  0  0  0  0  0
  -36.8665  -40.8357  -10.8177 H   0  0  0  0  0  0  0  0  0  0  0  0
  -36.9920  -30.7812  -11.2635 H   0  0  0  0  0  0  0  0  0  0  0  0
  -36.3973  -32.2407  -10.8359 H   0  0  0  0  0  0  0  0  0  0  0  0
  -37.9998  -32.0543  -11.0888 H   0  0  0  0  0  0  0  0  0  0  0  0
  1 11  1  0  0  0  0
  2 23  2  0  0  0  0
  3 24  2  0  0  0  0
  4 23  1  0  0  0  0
  4 31  1  0  0  0  0
  5 25  1  0  0  0  0
  5 33  1  0  0  0  0
  6  9  1  0  0  0  0
  6 26  2  0  0  0  0
  7  8  1  0  0  0  0
  7 28  2  0  0  0  0
  8 13  1  0  0  0  0
  8 27  1  0  0  0  0
  9 12  1  0  0  0  0
  9 29  1  0  0  0  0
 10 14  1  0  0  0  0
 10 23  1  0  0  0  0
 10 32  1  0  0  0  0
 11 12  2  0  0  0  0
 11 15  1  0  0  0  0
 12 16  1  0  0  0  0
 13 18  2  0  0  0  0
 13 19  1  0  0  0  0
 14 15  2  0  0  0  0
 14 17  1  0  0  0  0
 15 34  1  0  0  0  0
 16 17  2  0  0  0  0
 16 35  1  0  0  0  0
 17 36  1  0  0  0  0
 18 20  1  0  0  0  0
 18 37  1  0  0  0  0
 19 21  2  0  0  0  0
 19 38  1  0  0  0  0
 20 22  2  0  0  0  0
 20 39  1  0  0  0  0
 21 22  1  0  0  0  0
 21 40  1  0  0  0  0
 22 41  1  0  0  0  0
 24 25  1  0  0  0  0
 24 26  1  0  0  0  0
 25 29  2  0  0  0  0
 26 27  1  0  0  0  0
 27 30  2  0  0  0  0
 28 30  1  0  0  0  0
 28 42  1  0  0  0  0
 29 43  1  0  0  0  0
 30 44  1  0  0  0  0
 31 32  1  0  0  0  0
 31 45  1  0  0  0  0
 31 46  1  0  0  0  0
 32 47  1  0  0  0  0
 32 48  1  0  0  0  0
 33 49  1  0  0  0  0
 33 50  1  0  0  0  0
 33 51  1  0  0  0  0
M  END
> <SCORE>
0.0317966

$$$$
5AXP_13_4LK_B_1003
          06102512283D 1   1.00000     0.00000     0
            
 51 55  0  0  0  0            999 V2000
  -37.5363  -35.5490  -11.1404 F   0  0  0  0  0  0  0  0  0  0  0  0
  -40.9329  -39.9965  -10.8959 O   0  0  0  0  0  0  0  0  0  0  0  0
  -37.7850  -31.2700   -6.6310 O   0  0  0  0  0  0  0  0  0  0  0  0
  -39.7098  -41.9008  -11.0908 O   0  0  0  0  0  0  0  0  0  0  0  0
  -37.3500  -31.2850   -9.3670 O   0  0  0  0  0  0  0  0  0  0  0  0
  -38.1280  -34.7660   -7.0890 N   0  0  0  0  0  0  0  0  0  0  0  0
  -38.3046  -34.2892   -2.8976 N   0  0  0  0  0  0  0  0  0  0  0  0
  -37.9276  -34.5365   -4.1656 N   0  0  0  0  0  0  0  0  0  0  0  0
  -37.9210  -34.8300   -8.4280 N   0  0  0  0  0  0  0  0  0  0  0  0
  -38.6729  -40.1020  -10.2676 N   0  0  0  0  0  0  0  0  0  0  0  0
  -37.8870  -36.4864  -10.2441 C   0  0  0  0  0  0  0  0  0  0  0  0
  -38.0510  -36.1540   -8.9100 C   0  0  0  0  0  0  0  0  0  0  0  0
  -37.1364  -35.6454   -4.4529 C   0  0  0  0  0  0  0  0  0  0  0  0
  -38.4511  -38.7763   -9.8173 C   0  0  0  0  0  0  0  0  0  0  0  0
  -38.0780  -37.7759  -10.6949 C   0  0  0  0  0  0  0  0  0  0  0  0
  -38.4233  -37.1615   -8.0403 C   0  0  0  0  0  0  0  0  0  0  0  0
  -38.6168  -38.4538   -8.4851 C   0  0  0  0  0  0  0  0  0  0  0  0
  -36.0073  -35.4895   -5.2243 C   0  0  0  0  0  0  0  0  0  0  0  0
  -37.4999  -36.8748   -3.9524 C   0  0  0  0  0  0  0  0  0  0  0  0
  -35.2295  -36.6002   -5.5105 C   0  0  0  0  0  0  0  0  0  0  0  0
  -36.7157  -37.9716   -4.2396 C   0  0  0  0  0  0  0  0  0  0  0  0
  -35.5840  -37.8375   -5.0175 C   0  0  0  0  0  0  0  0  0  0  0  0
  -39.8718  -40.5896  -10.7578 C   0  0  0  0  0  0  0  0  0  0  0  0
  -37.8110  -32.3440   -7.2270 C   0  0  0  0  0  0  0  0  0  0  0  0
  -37.5950  -32.4600   -8.6810 C   0  0  0  0  0  0  0  0  0  0  0  0
  -38.0770  -33.6250   -6.4820 C   0  0  0  0  0  0  0  0  0  0  0  0
  -38.3280  -33.5800   -5.0620 C   0  0  0  0  0  0  0  0  0  0  0  0
  -38.9800  -33.1306   -2.9774 C   0  0  0  0  0  0  0  0  0  0  0  0
  -37.6640  -33.7040   -9.1750 C   0  0  0  0  0  0  0  0  0  0  0  0
  -39.0209  -32.6560   -4.3140 C   0  0  0  0  0  0  0  0  0  0  0  0
  -38.3548  -42.3032  -10.8006 C   0  0  0  0  0  0  0  0  0  0  0  0
  -37.6405  -41.0989  -10.2417 C   0  0  0  0  0  0  0  0  0  0  0  0
  -37.1715  -31.6149  -10.7412 C   0  0  0  0  0  0  0  0  0  0  0  0
  -37.9456  -37.9883  -11.6631 H   0  0  0  0  0  0  0  0  0  0  0  0
  -38.5547  -36.9506   -7.0717 H   0  0  0  0  0  0  0  0  0  0  0  0
  -38.8804  -39.1656   -7.8341 H   0  0  0  0  0  0  0  0  0  0  0  0
  -35.7519  -34.5878   -5.5732 H   0  0  0  0  0  0  0  0  0  0  0  0
  -38.3204  -36.9710   -3.3889 H   0  0  0  0  0  0  0  0  0  0  0  0
  -34.4101  -36.5038   -6.0754 H   0  0  0  0  0  0  0  0  0  0  0  0
  -36.9688  -38.8705   -3.8818 H   0  0  0  0  0  0  0  0  0  0  0  0
  -35.0211  -38.6379   -5.2236 H   0  0  0  0  0  0  0  0  0  0  0  0
  -39.3986  -32.6643   -2.1981 H   0  0  0  0  0  0  0  0  0  0  0  0
  -37.5182  -33.8220  -10.1572 H   0  0  0  0  0  0  0  0  0  0  0  0
  -39.4623  -31.8217   -4.6444 H   0  0  0  0  0  0  0  0  0  0  0  0
  -37.9026  -42.6118  -11.6374 H   0  0  0  0  0  0  0  0  0  0  0  0
  -38.3542  -43.0440  -10.1288 H   0  0  0  0  0  0  0  0  0  0  0  0
  -37.3203  -41.2664   -9.3093 H   0  0  0  0  0  0  0  0  0  0  0  0
  -36.8665  -40.8357  -10.8177 H   0  0  0  0  0  0  0  0  0  0  0  0
  -36.9920  -30.7812  -11.2635 H   0  0  0  0  0  0  0  0  0  0  0  0
  -36.3973  -32.2407  -10.8359 H   0  0  0  0  0  0  0  0  0  0  0  0
  -37.9998  -32.0543  -11.0888 H   0  0  0  0  0  0  0  0  0  0  0  0
  1 11  1  0  0  0  0
  2 23  2  0  0  0  0
  3 24  2  0  0  0  0
  4 23  1  0  0  0  0
  4 31  1  0  0  0  0
  5 25  1  0  0  0  0
  5 33  1  0  0  0  0
  6  9  1  0  0  0  0
  6 26  2  0  0  0  0
  7  8  1  0  0  0  0
  7 28  2  0  0  0  0
  8 13  1  0  0  0  0
  8 27  1  0  0  0  0
  9 12  1  0  0  0  0
  9 29  1  0  0  0  0
 10 14  1  0  0  0  0
 10 23  1  0  0  0  0
 10 32  1  0  0  0  0
 11 12  2  0  0  0  0
 11 15  1  0  0  0  0
 12 16  1  0  0  0  0
 13 18  2  0  0  0  0
 13 19  1  0  0  0  0
 14 15  2  0  0  0  0
 14 17  1  0  0  0  0
 15 34  1  0  0  0  0
 16 17  2  0  0  0  0
 16 35  1  0  0  0  0
 17 36  1  0  0  0  0
 18 20  1  0  0  0  0
 18 37  1  0  0  0  0
 19 21  2  0  0  0  0
 19 38  1  0  0  0  0
 20 22  2  0  0  0  0
 20 39  1  0  0  0  0
 21 22  1  0  0  0  0
 21 40  1  0  0  0  0
 22 41  1  0  0  0  0
 24 25  1  0  0  0  0
 24 26  1  0  0  0  0
 25 29  2  0  0  0  0
 26 27  1  0  0  0  0
 27 30  2  0  0  0  0
 28 30  1  0  0  0  0
 28 42  1  0  0  0  0
 29 43  1  0  0  0  0
 30 44  1  0  0  0  0
 31 32  1  0  0  0  0
 31 45  1  0  0  0  0
 31 46  1  0  0  0  0
 32 47  1  0  0  0  0
 32 48  1  0  0  0  0
 33 49  1  0  0  0  0
 33 50  1  0  0  0  0
 33 51  1  0  0  0  0
M  END
> <SCORE>
0.0317966

$$$$
5AXP_13_4LK_B_1003
          06102512283D 1   1.00000     0.00000     0
            
 51 55  0  0  0  0            999 V2000
  -37.5363  -35.5490  -11.1404 F   0  0  0  0  0  0  0  0  0  0  0  0
  -40.9329  -39.9965  -10.8959 O   0  0  0  0  0  0  0  0  0  0  0  0
  -37.7850  -31.2700   -6.6310 O   0  0  0  0  0  0  0  0  0  0  0  0
  -39.7098  -41.9008  -11.0908 O   0  0  0  0  0  0  0  0  0  0  0  0
  -37.3500  -31.2850   -9.3670 O   0  0  0  0  0  0  0  0  0  0  0  0
  -38.1280  -34.7660   -7.0890 N   0  0  0  0  0  0  0  0  0  0  0  0
  -38.3046  -34.2892   -2.8976 N   0  0  0  0  0  0  0  0  0  0  0  0
  -37.9276  -34.5365   -4.1656 N   0  0  0  0  0  0  0  0  0  0  0  0
  -37.9210  -34.8300   -8.4280 N   0  0  0  0  0  0  0  0  0  0  0  0
  -38.6729  -40.1020  -10.2676 N   0  0  0  0  0  0  0  0  0  0  0  0
  -37.8870  -36.4864  -10.2441 C   0  0  0  0  0  0  0  0  0  0  0  0
  -38.0510  -36.1540   -8.9100 C   0  0  0  0  0  0  0  0  0  0  0  0
  -37.1364  -35.6454   -4.4529 C   0  0  0  0  0  0  0  0  0  0  0  0
  -38.4511  -38.7763   -9.8173 C   0  0  0  0  0  0  0  0  0  0  0  0
  -38.0780  -37.7759  -10.6949 C   0  0  0  0  0  0  0  0  0  0  0  0
  -38.4233  -37.1615   -8.0403 C   0  0  0  0  0  0  0  0  0  0  0  0
  -38.6168  -38.4538   -8.4851 C   0  0  0  0  0  0  0  0  0  0  0  0
  -36.0073  -35.4895   -5.2243 C   0  0  0  0  0  0  0  0  0  0  0  0
  -37.4999  -36.8748   -3.9524 C   0  0  0  0  0  0  0  0  0  0  0  0
  -35.2295  -36.6002   -5.5105 C   0  0  0  0  0  0  0  0  0  0  0  0
  -36.7157  -37.9716   -4.2396 C   0  0  0  0  0  0  0  0  0  0  0  0
  -35.5840  -37.8375   -5.0175 C   0  0  0  0  0  0  0  0  0  0  0  0
  -39.8718  -40.5896  -10.7578 C   0  0  0  0  0  0  0  0  0  0  0  0
  -37.8110  -32.3440   -7.2270 C   0  0  0  0  0  0  0  0  0  0  0  0
  -37.5950  -32.4600   -8.6810 C   0  0  0  0  0  0  0  0  0  0  0  0
  -38.0770  -33.6250   -6.4820 C   0  0  0  0  0  0  0  0  0  0  0  0
  -38.3280  -33.5800   -5.0620 C   0  0  0  0  0  0  0  0  0  0  0  0
  -38.9800  -33.1306   -2.9774 C   0  0  0  0  0  0  0  0  0  0  0  0
  -37.6640  -33.7040   -9.1750 C   0  0  0  0  0  0  0  0  0  0  0  0
  -39.0209  -32.6560   -4.3140 C   0  0  0  0  0  0  0  0  0  0  0  0
  -38.3548  -42.3032  -10.8006 C   0  0  0  0  0  0  0  0  0  0  0  0
  -37.6405  -41.0989  -10.2417 C   0  0  0  0  0  0  0  0  0  0  0  0
  -37.1715  -31.6149  -10.7412 C   0  0  0  0  0  0  0  0  0  0  0  0
  -37.9456  -37.9883  -11.6631 H   0  0  0  0  0  0  0  0  0  0  0  0
  -38.5547  -36.9506   -7.0717 H   0  0  0  0  0  0  0  0  0  0  0  0
  -38.8804  -39.1656   -7.8341 H   0  0  0  0  0  0  0  0  0  0  0  0
  -35.7519  -34.5878   -5.5732 H   0  0  0  0  0  0  0  0  0  0  0  0
  -38.3204  -36.9710   -3.3889 H   0  0  0  0  0  0  0  0  0  0  0  0
  -34.4101  -36.5038   -6.0754 H   0  0  0  0  0  0  0  0  0  0  0  0
  -36.9688  -38.8705   -3.8818 H   0  0  0  0  0  0  0  0  0  0  0  0
  -35.0211  -38.6379   -5.2236 H   0  0  0  0  0  0  0  0  0  0  0  0
  -39.3986  -32.6643   -2.1981 H   0  0  0  0  0  0  0  0  0  0  0  0
  -37.5182  -33.8220  -10.1572 H   0  0  0  0  0  0  0  0  0  0  0  0
  -39.4623  -31.8217   -4.6444 H   0  0  0  0  0  0  0  0  0  0  0  0
  -37.9026  -42.6118  -11.6374 H   0  0  0  0  0  0  0  0  0  0  0  0
  -38.3542  -43.0440  -10.1288 H   0  0  0  0  0  0  0  0  0  0  0  0
  -37.3203  -41.2664   -9.3093 H   0  0  0  0  0  0  0  0  0  0  0  0
  -36.8665  -40.8357  -10.8177 H   0  0  0  0  0  0  0  0  0  0  0  0
  -36.9920  -30.7812  -11.2635 H   0  0  0  0  0  0  0  0  0  0  0  0
  -36.3973  -32.2407  -10.8359 H   0  0  0  0  0  0  0  0  0  0  0  0
  -37.9998  -32.0543  -11.0888 H   0  0  0  0  0  0  0  0  0  0  0  0
  1 11  1  0  0  0  0
  2 23  2  0  0  0  0
  3 24  2  0  0  0  0
  4 23  1  0  0  0  0
  4 31  1  0  0  0  0
  5 25  1  0  0  0  0
  5 33  1  0  0  0  0
  6  9  1  0  0  0  0
  6 26  2  0  0  0  0
  7  8  1  0  0  0  0
  7 28  2  0  0  0  0
  8 13  1  0  0  0  0
  8 27  1  0  0  0  0
  9 12  1  0  0  0  0
  9 29  1  0  0  0  0
 10 14  1  0  0  0  0
 10 23  1  0  0  0  0
 10 32  1  0  0  0  0
 11 12  2  0  0  0  0
 11 15  1  0  0  0  0
 12 16  1  0  0  0  0
 13 18  2  0  0  0  0
 13 19  1  0  0  0  0
 14 15  2  0  0  0  0
 14 17  1  0  0  0  0
 15 34  1  0  0  0  0
 16 17  2  0  0  0  0
 16 35  1  0  0  0  0
 17 36  1  0  0  0  0
 18 20  1  0  0  0  0
 18 37  1  0  0  0  0
 19 21  2  0  0  0  0
 19 38  1  0  0  0  0
 20 22  2  0  0  0  0
 20 39  1  0  0  0  0
 21 22  1  0  0  0  0
 21 40  1  0  0  0  0
 22 41  1  0  0  0  0
 24 25  1  0  0  0  0
 24 26  1  0  0  0  0
 25 29  2  0  0  0  0
 26 27  1  0  0  0  0
 27 30  2  0  0  0  0
 28 30  1  0  0  0  0
 28 42  1  0  0  0  0
 29 43  1  0  0  0  0
 30 44  1  0  0  0  0
 31 32  1  0  0  0  0
 31 45  1  0  0  0  0
 31 46  1  0  0  0  0
 32 47  1  0  0  0  0
 32 48  1  0  0  0  0
 33 49  1  0  0  0  0
 33 50  1  0  0  0  0
 33 51  1  0  0  0  0
M  END
> <SCORE>
0.0317966

$$$$
