3UI7_6_C1L_B_1
          06102512283D 1   1.00000     0.00000     0
            
 46 49  0  0  0  0            999 V2000
  -24.6358  -10.5777    4.8396 O   0  0  0  0  0  0  0  0  0  0  0  0
  -21.9849   -7.4830    7.1143 O   0  0  0  0  0  0  0  0  0  0  0  0
  -28.0879  -10.6783    9.2363 N   0  0  0  0  0  0  0  0  0  0  0  0
  -27.4890  -10.4541   12.7096 N   0  0  0  0  0  0  0  0  0  0  0  0
  -23.1939   -9.3433    8.8503 N   0  0  0  0  0  0  0  0  0  0  0  0
  -28.2635  -10.5559   11.6460 N   0  0  0  0  0  0  0  0  0  0  0  0
  -27.5519  -10.5614   10.4760 C   0  0  0  0  0  0  0  0  0  0  0  0
  -27.2147  -10.6053    8.1883 C   0  0  0  0  0  0  0  0  0  0  0  0
  -25.4261  -10.6108    5.9531 C   0  0  0  0  0  0  0  0  0  0  0  0
  -25.8017  -10.5038    8.3842 C   0  0  0  0  0  0  0  0  0  0  0  0
  -26.1894  -10.4723   10.8062 C   0  0  0  0  0  0  0  0  0  0  0  0
  -25.2677  -10.4103    9.7186 C   0  0  0  0  0  0  0  0  0  0  0  0
  -27.7133  -10.7109    6.8506 C   0  0  0  0  0  0  0  0  0  0  0  0
  -24.9516  -10.5304    7.2659 C   0  0  0  0  0  0  0  0  0  0  0  0
  -26.8080  -10.6966    5.7435 C   0  0  0  0  0  0  0  0  0  0  0  0
  -26.2210  -10.4472   12.2344 C   0  0  0  0  0  0  0  0  0  0  0  0
  -23.2936   -7.1973    7.6347 C   0  0  0  0  0  0  0  0  0  0  0  0
  -21.4986   -8.8824    7.1871 C   0  0  0  0  0  0  0  0  0  0  0  0
  -23.7615  -10.2703    9.8706 C   0  0  0  0  0  0  0  0  0  0  0  0
  -23.5167   -7.9069    8.9913 C   0  0  0  0  0  0  0  0  0  0  0  0
  -21.8082   -9.6303    8.5036 C   0  0  0  0  0  0  0  0  0  0  0  0
  -23.2309  -10.4408    5.0642 C   0  0  0  0  0  0  0  0  0  0  0  0
  -29.1925  -10.8059    6.5756 C   0  0  0  0  0  0  0  0  0  0  0  0
  -25.1129  -10.3068   13.2082 C   0  0  0  0  0  0  0  0  0  0  0  0
  -29.2604  -10.6217   11.6897 H   0  0  0  0  0  0  0  0  0  0  0  0
  -23.9637  -10.4902    7.4154 H   0  0  0  0  0  0  0  0  0  0  0  0
  -27.1653  -10.7483    4.8109 H   0  0  0  0  0  0  0  0  0  0  0  0
  -23.9816   -7.5149    6.9823 H   0  0  0  0  0  0  0  0  0  0  0  0
  -23.3864   -6.2098    7.7628 H   0  0  0  0  0  0  0  0  0  0  0  0
  -20.5059   -8.8696    7.0668 H   0  0  0  0  0  0  0  0  0  0  0  0
  -21.9186   -9.3933    6.4371 H   0  0  0  0  0  0  0  0  0  0  0  0
  -23.5585   -9.9136   10.7825 H   0  0  0  0  0  0  0  0  0  0  0  0
  -23.3389  -11.1703    9.7630 H   0  0  0  0  0  0  0  0  0  0  0  0
  -22.9230   -7.4975    9.6840 H   0  0  0  0  0  0  0  0  0  0  0  0
  -24.4720   -7.8047    9.2685 H   0  0  0  0  0  0  0  0  0  0  0  0
  -21.6844  -10.6143    8.3752 H   0  0  0  0  0  0  0  0  0  0  0  0
  -21.2004   -9.3099    9.2301 H   0  0  0  0  0  0  0  0  0  0  0  0
  -22.7527  -10.4280    4.1861 H   0  0  0  0  0  0  0  0  0  0  0  0
  -23.0532   -9.5867    5.5530 H   0  0  0  0  0  0  0  0  0  0  0  0
  -22.9040  -11.2119    5.6106 H   0  0  0  0  0  0  0  0  0  0  0  0
  -29.6931  -10.8052    7.4412 H   0  0  0  0  0  0  0  0  0  0  0  0
  -29.4798  -10.0232    6.0236 H   0  0  0  0  0  0  0  0  0  0  0  0
  -29.3856  -11.6525    6.0796 H   0  0  0  0  0  0  0  0  0  0  0  0
  -24.2389  -10.3173   12.7224 H   0  0  0  0  0  0  0  0  0  0  0  0
  -25.2100   -9.4422   13.7012 H   0  0  0  0  0  0  0  0  0  0  0  0
  -25.1422  -11.0662   13.8582 H   0  0  0  0  0  0  0  0  0  0  0  0
  1  9  1  0  0  0  0
  1 22  1  0  0  0  0
  2 17  1  0  0  0  0
  2 18  1  0  0  0  0
  3  7  2  0  0  0  0
  3  8  1  0  0  0  0
  4  6  1  0  0  0  0
  4 16  2  0  0  0  0
  5 19  1  0  0  0  0
  5 20  1  0  0  0  0
  5 21  1  0  0  0  0
  6  7  1  0  0  0  0
  6 25  1  0  0  0  0
  7 11  1  0  0  0  0
  8 10  2  0  0  0  0
  8 13  1  0  0  0  0
  9 14  2  0  0  0  0
  9 15  1  0  0  0  0
 10 12  1  0  0  0  0
 10 14  1  0  0  0  0
 11 12  2  0  0  0  0
 11 16  1  0  0  0  0
 12 19  1  0  0  0  0
 13 15  2  0  0  0  0
 13 23  1  0  0  0  0
 14 26  1  0  0  0  0
 15 27  1  0  0  0  0
 16 24  1  0  0  0  0
 17 20  1  0  0  0  0
 17 28  1  0  0  0  0
 17 29  1  0  0  0  0
 18 21  1  0  0  0  0
 18 30  1  0  0  0  0
 18 31  1  0  0  0  0
 19 32  1  0  0  0  0
 19 33  1  0  0  0  0
 20 34  1  0  0  0  0
 20 35  1  0  0  0  0
 21 36  1  0  0  0  0
 21 37  1  0  0  0  0
 22 38  1  0  0  0  0
 22 39  1  0  0  0  0
 22 40  1  0  0  0  0
 23 41  1  0  0  0  0
 23 42  1  0  0  0  0
 23 43  1  0  0  0  0
 24 44  1  0  0  0  0
 24 45  1  0  0  0  0
 24 46  1  0  0  0  0
M  END
> <SCORE>
-1.67763

$$$$
3UI7_6_C1L_B_1
          06102512283D 1   1.00000     0.00000     0
            
 46 49  0  0  0  0            999 V2000
  -24.6358  -10.5777    4.8396 O   0  0  0  0  0  0  0  0  0  0  0  0
  -21.9849   -7.4830    7.1143 O   0  0  0  0  0  0  0  0  0  0  0  0
  -28.0879  -10.6783    9.2363 N   0  0  0  0  0  0  0  0  0  0  0  0
  -27.4890  -10.4541   12.7096 N   0  0  0  0  0  0  0  0  0  0  0  0
  -23.1939   -9.3433    8.8503 N   0  0  0  0  0  0  0  0  0  0  0  0
  -28.2635  -10.5559   11.6460 N   0  0  0  0  0  0  0  0  0  0  0  0
  -27.5519  -10.5614   10.4760 C   0  0  0  0  0  0  0  0  0  0  0  0
  -27.2147  -10.6053    8.1883 C   0  0  0  0  0  0  0  0  0  0  0  0
  -25.4261  -10.6108    5.9531 C   0  0  0  0  0  0  0  0  0  0  0  0
  -25.8017  -10.5038    8.3842 C   0  0  0  0  0  0  0  0  0  0  0  0
  -26.1894  -10.4723   10.8062 C   0  0  0  0  0  0  0  0  0  0  0  0
  -25.2677  -10.4103    9.7186 C   0  0  0  0  0  0  0  0  0  0  0  0
  -27.7133  -10.7109    6.8506 C   0  0  0  0  0  0  0  0  0  0  0  0
  -24.9516  -10.5304    7.2659 C   0  0  0  0  0  0  0  0  0  0  0  0
  -26.8080  -10.6966    5.7435 C   0  0  0  0  0  0  0  0  0  0  0  0
  -26.2210  -10.4472   12.2344 C   0  0  0  0  0  0  0  0  0  0  0  0
  -23.2936   -7.1973    7.6347 C   0  0  0  0  0  0  0  0  0  0  0  0
  -21.4986   -8.8824    7.1871 C   0  0  0  0  0  0  0  0  0  0  0  0
  -23.7615  -10.2703    9.8706 C   0  0  0  0  0  0  0  0  0  0  0  0
  -23.5167   -7.9069    8.9913 C   0  0  0  0  0  0  0  0  0  0  0  0
  -21.8082   -9.6303    8.5036 C   0  0  0  0  0  0  0  0  0  0  0  0
  -23.2309  -10.4408    5.0642 C   0  0  0  0  0  0  0  0  0  0  0  0
  -29.1925  -10.8059    6.5756 C   0  0  0  0  0  0  0  0  0  0  0  0
  -25.1129  -10.3068   13.2082 C   0  0  0  0  0  0  0  0  0  0  0  0
  -29.2604  -10.6217   11.6897 H   0  0  0  0  0  0  0  0  0  0  0  0
  -23.9637  -10.4902    7.4154 H   0  0  0  0  0  0  0  0  0  0  0  0
  -27.1653  -10.7483    4.8109 H   0  0  0  0  0  0  0  0  0  0  0  0
  -23.9816   -7.5149    6.9823 H   0  0  0  0  0  0  0  0  0  0  0  0
  -23.3864   -6.2098    7.7628 H   0  0  0  0  0  0  0  0  0  0  0  0
  -20.5059   -8.8696    7.0668 H   0  0  0  0  0  0  0  0  0  0  0  0
  -21.9186   -9.3933    6.4371 H   0  0  0  0  0  0  0  0  0  0  0  0
  -23.5585   -9.9136   10.7825 H   0  0  0  0  0  0  0  0  0  0  0  0
  -23.3389  -11.1703    9.7630 H   0  0  0  0  0  0  0  0  0  0  0  0
  -22.9230   -7.4975    9.6840 H   0  0  0  0  0  0  0  0  0  0  0  0
  -24.4720   -7.8047    9.2685 H   0  0  0  0  0  0  0  0  0  0  0  0
  -21.6844  -10.6143    8.3752 H   0  0  0  0  0  0  0  0  0  0  0  0
  -21.2004   -9.3099    9.2301 H   0  0  0  0  0  0  0  0  0  0  0  0
  -22.7527  -10.4280    4.1861 H   0  0  0  0  0  0  0  0  0  0  0  0
  -23.0532   -9.5867    5.5530 H   0  0  0  0  0  0  0  0  0  0  0  0
  -22.9040  -11.2119    5.6106 H   0  0  0  0  0  0  0  0  0  0  0  0
  -29.6931  -10.8052    7.4412 H   0  0  0  0  0  0  0  0  0  0  0  0
  -29.4798  -10.0232    6.0236 H   0  0  0  0  0  0  0  0  0  0  0  0
  -29.3856  -11.6525    6.0796 H   0  0  0  0  0  0  0  0  0  0  0  0
  -24.2389  -10.3173   12.7224 H   0  0  0  0  0  0  0  0  0  0  0  0
  -25.2100   -9.4422   13.7012 H   0  0  0  0  0  0  0  0  0  0  0  0
  -25.1422  -11.0662   13.8582 H   0  0  0  0  0  0  0  0  0  0  0  0
  1  9  1  0  0  0  0
  1 22  1  0  0  0  0
  2 17  1  0  0  0  0
  2 18  1  0  0  0  0
  3  7  2  0  0  0  0
  3  8  1  0  0  0  0
  4  6  1  0  0  0  0
  4 16  2  0  0  0  0
  5 19  1  0  0  0  0
  5 20  1  0  0  0  0
  5 21  1  0  0  0  0
  6  7  1  0  0  0  0
  6 25  1  0  0  0  0
  7 11  1  0  0  0  0
  8 10  2  0  0  0  0
  8 13  1  0  0  0  0
  9 14  2  0  0  0  0
  9 15  1  0  0  0  0
 10 12  1  0  0  0  0
 10 14  1  0  0  0  0
 11 12  2  0  0  0  0
 11 16  1  0  0  0  0
 12 19  1  0  0  0  0
 13 15  2  0  0  0  0
 13 23  1  0  0  0  0
 14 26  1  0  0  0  0
 15 27  1  0  0  0  0
 16 24  1  0  0  0  0
 17 20  1  0  0  0  0
 17 28  1  0  0  0  0
 17 29  1  0  0  0  0
 18 21  1  0  0  0  0
 18 30  1  0  0  0  0
 18 31  1  0  0  0  0
 19 32  1  0  0  0  0
 19 33  1  0  0  0  0
 20 34  1  0  0  0  0
 20 35  1  0  0  0  0
 21 36  1  0  0  0  0
 21 37  1  0  0  0  0
 22 38  1  0  0  0  0
 22 39  1  0  0  0  0
 22 40  1  0  0  0  0
 23 41  1  0  0  0  0
 23 42  1  0  0  0  0
 23 43  1  0  0  0  0
 24 44  1  0  0  0  0
 24 45  1  0  0  0  0
 24 46  1  0  0  0  0
M  END
> <SCORE>
-1.67763

$$$$
3UI7_6_C1L_B_1
          06102512283D 1   1.00000     0.00000     0
            
 46 49  0  0  0  0            999 V2000
  -24.6358  -10.5777    4.8396 O   0  0  0  0  0  0  0  0  0  0  0  0
  -21.9849   -7.4830    7.1143 O   0  0  0  0  0  0  0  0  0  0  0  0
  -28.0879  -10.6783    9.2363 N   0  0  0  0  0  0  0  0  0  0  0  0
  -27.4890  -10.4541   12.7096 N   0  0  0  0  0  0  0  0  0  0  0  0
  -23.1939   -9.3433    8.8503 N   0  0  0  0  0  0  0  0  0  0  0  0
  -28.2635  -10.5559   11.6460 N   0  0  0  0  0  0  0  0  0  0  0  0
  -27.5519  -10.5614   10.4760 C   0  0  0  0  0  0  0  0  0  0  0  0
  -27.2147  -10.6053    8.1883 C   0  0  0  0  0  0  0  0  0  0  0  0
  -25.4261  -10.6108    5.9531 C   0  0  0  0  0  0  0  0  0  0  0  0
  -25.8017  -10.5038    8.3842 C   0  0  0  0  0  0  0  0  0  0  0  0
  -26.1894  -10.4723   10.8062 C   0  0  0  0  0  0  0  0  0  0  0  0
  -25.2677  -10.4103    9.7186 C   0  0  0  0  0  0  0  0  0  0  0  0
  -27.7133  -10.7109    6.8506 C   0  0  0  0  0  0  0  0  0  0  0  0
  -24.9516  -10.5304    7.2659 C   0  0  0  0  0  0  0  0  0  0  0  0
  -26.8080  -10.6966    5.7435 C   0  0  0  0  0  0  0  0  0  0  0  0
  -26.2210  -10.4472   12.2344 C   0  0  0  0  0  0  0  0  0  0  0  0
  -23.2936   -7.1973    7.6347 C   0  0  0  0  0  0  0  0  0  0  0  0
  -21.4986   -8.8824    7.1871 C   0  0  0  0  0  0  0  0  0  0  0  0
  -23.7615  -10.2703    9.8706 C   0  0  0  0  0  0  0  0  0  0  0  0
  -23.5167   -7.9069    8.9913 C   0  0  0  0  0  0  0  0  0  0  0  0
  -21.8082   -9.6303    8.5036 C   0  0  0  0  0  0  0  0  0  0  0  0
  -23.2309  -10.4408    5.0642 C   0  0  0  0  0  0  0  0  0  0  0  0
  -29.1925  -10.8059    6.5756 C   0  0  0  0  0  0  0  0  0  0  0  0
  -25.1129  -10.3068   13.2082 C   0  0  0  0  0  0  0  0  0  0  0  0
  -29.2604  -10.6217   11.6897 H   0  0  0  0  0  0  0  0  0  0  0  0
  -23.9637  -10.4902    7.4154 H   0  0  0  0  0  0  0  0  0  0  0  0
  -27.1653  -10.7483    4.8109 H   0  0  0  0  0  0  0  0  0  0  0  0
  -23.9816   -7.5149    6.9823 H   0  0  0  0  0  0  0  0  0  0  0  0
  -23.3864   -6.2098    7.7628 H   0  0  0  0  0  0  0  0  0  0  0  0
  -20.5059   -8.8696    7.0668 H   0  0  0  0  0  0  0  0  0  0  0  0
  -21.9186   -9.3933    6.4371 H   0  0  0  0  0  0  0  0  0  0  0  0
  -23.5585   -9.9136   10.7825 H   0  0  0  0  0  0  0  0  0  0  0  0
  -23.3389  -11.1703    9.7630 H   0  0  0  0  0  0  0  0  0  0  0  0
  -22.9230   -7.4975    9.6840 H   0  0  0  0  0  0  0  0  0  0  0  0
  -24.4720   -7.8047    9.2685 H   0  0  0  0  0  0  0  0  0  0  0  0
  -21.6844  -10.6143    8.3752 H   0  0  0  0  0  0  0  0  0  0  0  0
  -21.2004   -9.3099    9.2301 H   0  0  0  0  0  0  0  0  0  0  0  0
  -22.7527  -10.4280    4.1861 H   0  0  0  0  0  0  0  0  0  0  0  0
  -23.0532   -9.5867    5.5530 H   0  0  0  0  0  0  0  0  0  0  0  0
  -22.9040  -11.2119    5.6106 H   0  0  0  0  0  0  0  0  0  0  0  0
  -29.6931  -10.8052    7.4412 H   0  0  0  0  0  0  0  0  0  0  0  0
  -29.4798  -10.0232    6.0236 H   0  0  0  0  0  0  0  0  0  0  0  0
  -29.3856  -11.6525    6.0796 H   0  0  0  0  0  0  0  0  0  0  0  0
  -24.2389  -10.3173   12.7224 H   0  0  0  0  0  0  0  0  0  0  0  0
  -25.2100   -9.4422   13.7012 H   0  0  0  0  0  0  0  0  0  0  0  0
  -25.1422  -11.0662   13.8582 H   0  0  0  0  0  0  0  0  0  0  0  0
  1  9  1  0  0  0  0
  1 22  1  0  0  0  0
  2 17  1  0  0  0  0
  2 18  1  0  0  0  0
  3  7  2  0  0  0  0
  3  8  1  0  0  0  0
  4  6  1  0  0  0  0
  4 16  2  0  0  0  0
  5 19  1  0  0  0  0
  5 20  1  0  0  0  0
  5 21  1  0  0  0  0
  6  7  1  0  0  0  0
  6 25  1  0  0  0  0
  7 11  1  0  0  0  0
  8 10  2  0  0  0  0
  8 13  1  0  0  0  0
  9 14  2  0  0  0  0
  9 15  1  0  0  0  0
 10 12  1  0  0  0  0
 10 14  1  0  0  0  0
 11 12  2  0  0  0  0
 11 16  1  0  0  0  0
 12 19  1  0  0  0  0
 13 15  2  0  0  0  0
 13 23  1  0  0  0  0
 14 26  1  0  0  0  0
 15 27  1  0  0  0  0
 16 24  1  0  0  0  0
 17 20  1  0  0  0  0
 17 28  1  0  0  0  0
 17 29  1  0  0  0  0
 18 21  1  0  0  0  0
 18 30  1  0  0  0  0
 18 31  1  0  0  0  0
 19 32  1  0  0  0  0
 19 33  1  0  0  0  0
 20 34  1  0  0  0  0
 20 35  1  0  0  0  0
 21 36  1  0  0  0  0
 21 37  1  0  0  0  0
 22 38  1  0  0  0  0
 22 39  1  0  0  0  0
 22 40  1  0  0  0  0
 23 41  1  0  0  0  0
 23 42  1  0  0  0  0
 23 43  1  0  0  0  0
 24 44  1  0  0  0  0
 24 45  1  0  0  0  0
 24 46  1  0  0  0  0
M  END
> <SCORE>
-1.67763

$$$$
