3UI7_6_MG_B_771
          06102512293D 1   1.00000     0.00000     0
            
  1  0  0  0  0  0            999 V2000
  -17.4410   -6.3324   10.4860 Mg  0  2  0  0  0  0  0  0  0  0  0  0
M  CHG  1   1   2
M  END
> <SCORE>
-0.2

$$$$
3UI7_6_MG_B_771
          06102512293D 1   1.00000     0.00000     0
            
  1  0  0  0  0  0            999 V2000
  -17.4410   -6.3324   10.4860 Mg  0  2  0  0  0  0  0  0  0  0  0  0
M  CHG  1   1   2
M  END
> <SCORE>
-0.2

$$$$
3UI7_6_MG_B_771
          06102512293D 1   1.00000     0.00000     0
            
  1  0  0  0  0  0            999 V2000
  -17.4410   -6.3324   10.4860 Mg  0  2  0  0  0  0  0  0  0  0  0  0
M  CHG  1   1   2
M  END
> <SCORE>
-0.2

$$$$
