3UI7_6_ZN_A_772
          06102512293D 1   1.00000     0.00000     0
            
  1  0  0  0  0  0            999 V2000
  -37.6500  -39.7480   -0.3850 Zn  0  2  0  0  0  0  0  0  0  0  0  0
M  CHG  1   1   2
M  END
> <SCORE>
0

$$$$
3UI7_6_ZN_A_772
          06102512293D 1   1.00000     0.00000     0
            
  1  0  0  0  0  0            999 V2000
  -37.6500  -39.7480   -0.3850 Zn  0  2  0  0  0  0  0  0  0  0  0  0
M  CHG  1   1   2
M  END
> <SCORE>
0

$$$$
3UI7_6_ZN_A_772
          06102512293D 1   1.00000     0.00000     0
            
  1  0  0  0  0  0            999 V2000
  -37.6500  -39.7480   -0.3850 Zn  0  2  0  0  0  0  0  0  0  0  0  0
M  CHG  1   1   2
M  END
> <SCORE>
0

$$$$
