6MSC_97_JY7_B_803
          06102512283D 1   1.00000     0.00000     0
            
 38 41  0  0  0  0            999 V2000
  -47.1350    3.8290   22.3420 F   0  0  0  0  0  0  0  0  0  0  0  0
  -45.8430    0.3390   25.3290 O   0  0  0  0  0  0  0  0  0  0  0  0
  -45.6690    2.9450   28.3970 N   0  0  0  0  0  0  0  0  0  0  0  0
  -45.7740    2.0790   27.3770 N   0  0  0  0  0  0  0  0  0  0  0  0
  -48.7666    9.2440   25.1306 N   0  0  0  0  0  0  0  0  0  0  0  0
  -46.6950    6.3250   28.6840 N   0  0  0  0  0  0  0  0  0  0  0  0
  -46.1140    5.1870   29.1730 N   0  0  0  0  0  0  0  0  0  0  0  0
  -46.9130    3.3840   23.6120 C   0  0  0  0  0  0  0  0  0  0  0  0
  -46.2470    1.6140   25.0440 C   0  0  0  0  0  0  0  0  0  0  0  0
  -46.0960    4.1980   28.2230 C   0  0  0  0  0  0  0  0  0  0  0  0
  -46.2530    2.5110   26.1570 C   0  0  0  0  0  0  0  0  0  0  0  0
  -46.6480    3.8620   25.9330 C   0  0  0  0  0  0  0  0  0  0  0  0
  -46.6640    4.7430   27.0590 C   0  0  0  0  0  0  0  0  0  0  0  0
  -47.6660    7.1730   26.6360 C   0  0  0  0  0  0  0  0  0  0  0  0
  -49.0666    7.3656   26.6378 C   0  0  0  0  0  0  0  0  0  0  0  0
  -49.5365    8.4217   25.8586 C   0  0  0  0  0  0  0  0  0  0  0  0
  -47.4466    9.0303   25.1554 C   0  0  0  0  0  0  0  0  0  0  0  0
  -46.5840    2.0530   23.7760 C   0  0  0  0  0  0  0  0  0  0  0  0
  -46.9710    4.2830   24.6210 C   0  0  0  0  0  0  0  0  0  0  0  0
  -46.8476    8.0208   25.8850 C   0  0  0  0  0  0  0  0  0  0  0  0
  -47.0290    6.0770   27.4230 C   0  0  0  0  0  0  0  0  0  0  0  0
  -45.8138   -0.6102   24.2593 C   0  0  0  0  0  0  0  0  0  0  0  0
  -45.5850    5.1910   30.5290 C   0  0  0  0  0  0  0  0  0  0  0  0
  -50.0295    6.5259   27.4454 C   0  0  0  0  0  0  0  0  0  0  0  0
  -50.5240    8.5783   25.8412 H   0  0  0  0  0  0  0  0  0  0  0  0
  -46.8603    9.6347   24.6160 H   0  0  0  0  0  0  0  0  0  0  0  0
  -46.5892    1.4233   22.9992 H   0  0  0  0  0  0  0  0  0  0  0  0
  -47.2379    5.2301   24.4427 H   0  0  0  0  0  0  0  0  0  0  0  0
  -45.8550    7.9003   25.8755 H   0  0  0  0  0  0  0  0  0  0  0  0
  -45.5018   -1.4945   24.6068 H   0  0  0  0  0  0  0  0  0  0  0  0
  -46.7319   -0.7080   23.8753 H   0  0  0  0  0  0  0  0  0  0  0  0
  -45.1872   -0.2917   23.5481 H   0  0  0  0  0  0  0  0  0  0  0  0
  -45.1961    4.2937   30.7377 H   0  0  0  0  0  0  0  0  0  0  0  0
  -44.8733    5.8891   30.6071 H   0  0  0  0  0  0  0  0  0  0  0  0
  -46.3222    5.3929   31.1738 H   0  0  0  0  0  0  0  0  0  0  0  0
  -49.5224    5.8196   27.9393 H   0  0  0  0  0  0  0  0  0  0  0  0
  -50.5123    7.1084   28.0993 H   0  0  0  0  0  0  0  0  0  0  0  0
  -50.6907    6.0941   26.8320 H   0  0  0  0  0  0  0  0  0  0  0  0
  1  8  1  0  0  0  0
  2  9  1  0  0  0  0
  2 22  1  0  0  0  0
  3  4  2  0  0  0  0
  3 10  1  0  0  0  0
  4 11  1  0  0  0  0
  5 16  2  0  0  0  0
  5 17  1  0  0  0  0
  6  7  1  0  0  0  0
  6 21  2  0  0  0  0
  7 10  1  0  0  0  0
  7 23  1  0  0  0  0
  8 18  2  0  0  0  0
  8 19  1  0  0  0  0
  9 11  2  0  0  0  0
  9 18  1  0  0  0  0
 10 13  2  0  0  0  0
 11 12  1  0  0  0  0
 12 13  1  0  0  0  0
 12 19  2  0  0  0  0
 13 21  1  0  0  0  0
 14 15  2  0  0  0  0
 14 20  1  0  0  0  0
 14 21  1  0  0  0  0
 15 16  1  0  0  0  0
 15 24  1  0  0  0  0
 16 25  1  0  0  0  0
 17 20  2  0  0  0  0
 17 26  1  0  0  0  0
 18 27  1  0  0  0  0
 19 28  1  0  0  0  0
 20 29  1  0  0  0  0
 22 30  1  0  0  0  0
 22 31  1  0  0  0  0
 22 32  1  0  0  0  0
 23 33  1  0  0  0  0
 23 34  1  0  0  0  0
 23 35  1  0  0  0  0
 24 36  1  0  0  0  0
 24 37  1  0  0  0  0
 24 38  1  0  0  0  0
M  END
> <SCORE>
0.0281201

$$$$
6MSC_97_JY7_B_803
          06102512283D 1   1.00000     0.00000     0
            
 38 41  0  0  0  0            999 V2000
  -47.1350    3.8290   22.3420 F   0  0  0  0  0  0  0  0  0  0  0  0
  -45.8430    0.3390   25.3290 O   0  0  0  0  0  0  0  0  0  0  0  0
  -45.6690    2.9450   28.3970 N   0  0  0  0  0  0  0  0  0  0  0  0
  -45.7740    2.0790   27.3770 N   0  0  0  0  0  0  0  0  0  0  0  0
  -48.7666    9.2440   25.1306 N   0  0  0  0  0  0  0  0  0  0  0  0
  -46.6950    6.3250   28.6840 N   0  0  0  0  0  0  0  0  0  0  0  0
  -46.1140    5.1870   29.1730 N   0  0  0  0  0  0  0  0  0  0  0  0
  -46.9130    3.3840   23.6120 C   0  0  0  0  0  0  0  0  0  0  0  0
  -46.2470    1.6140   25.0440 C   0  0  0  0  0  0  0  0  0  0  0  0
  -46.0960    4.1980   28.2230 C   0  0  0  0  0  0  0  0  0  0  0  0
  -46.2530    2.5110   26.1570 C   0  0  0  0  0  0  0  0  0  0  0  0
  -46.6480    3.8620   25.9330 C   0  0  0  0  0  0  0  0  0  0  0  0
  -46.6640    4.7430   27.0590 C   0  0  0  0  0  0  0  0  0  0  0  0
  -47.6660    7.1730   26.6360 C   0  0  0  0  0  0  0  0  0  0  0  0
  -49.0666    7.3656   26.6378 C   0  0  0  0  0  0  0  0  0  0  0  0
  -49.5365    8.4217   25.8586 C   0  0  0  0  0  0  0  0  0  0  0  0
  -47.4466    9.0303   25.1554 C   0  0  0  0  0  0  0  0  0  0  0  0
  -46.5840    2.0530   23.7760 C   0  0  0  0  0  0  0  0  0  0  0  0
  -46.9710    4.2830   24.6210 C   0  0  0  0  0  0  0  0  0  0  0  0
  -46.8476    8.0208   25.8850 C   0  0  0  0  0  0  0  0  0  0  0  0
  -47.0290    6.0770   27.4230 C   0  0  0  0  0  0  0  0  0  0  0  0
  -45.8138   -0.6102   24.2593 C   0  0  0  0  0  0  0  0  0  0  0  0
  -45.5850    5.1910   30.5290 C   0  0  0  0  0  0  0  0  0  0  0  0
  -50.0295    6.5259   27.4454 C   0  0  0  0  0  0  0  0  0  0  0  0
  -50.5240    8.5783   25.8412 H   0  0  0  0  0  0  0  0  0  0  0  0
  -46.8603    9.6347   24.6160 H   0  0  0  0  0  0  0  0  0  0  0  0
  -46.5892    1.4233   22.9992 H   0  0  0  0  0  0  0  0  0  0  0  0
  -47.2379    5.2301   24.4427 H   0  0  0  0  0  0  0  0  0  0  0  0
  -45.8550    7.9003   25.8755 H   0  0  0  0  0  0  0  0  0  0  0  0
  -45.5018   -1.4945   24.6068 H   0  0  0  0  0  0  0  0  0  0  0  0
  -46.7319   -0.7080   23.8753 H   0  0  0  0  0  0  0  0  0  0  0  0
  -45.1872   -0.2917   23.5481 H   0  0  0  0  0  0  0  0  0  0  0  0
  -45.1961    4.2937   30.7377 H   0  0  0  0  0  0  0  0  0  0  0  0
  -44.8733    5.8891   30.6071 H   0  0  0  0  0  0  0  0  0  0  0  0
  -46.3222    5.3929   31.1738 H   0  0  0  0  0  0  0  0  0  0  0  0
  -49.5224    5.8196   27.9393 H   0  0  0  0  0  0  0  0  0  0  0  0
  -50.5123    7.1084   28.0993 H   0  0  0  0  0  0  0  0  0  0  0  0
  -50.6907    6.0941   26.8320 H   0  0  0  0  0  0  0  0  0  0  0  0
  1  8  1  0  0  0  0
  2  9  1  0  0  0  0
  2 22  1  0  0  0  0
  3  4  2  0  0  0  0
  3 10  1  0  0  0  0
  4 11  1  0  0  0  0
  5 16  2  0  0  0  0
  5 17  1  0  0  0  0
  6  7  1  0  0  0  0
  6 21  2  0  0  0  0
  7 10  1  0  0  0  0
  7 23  1  0  0  0  0
  8 18  2  0  0  0  0
  8 19  1  0  0  0  0
  9 11  2  0  0  0  0
  9 18  1  0  0  0  0
 10 13  2  0  0  0  0
 11 12  1  0  0  0  0
 12 13  1  0  0  0  0
 12 19  2  0  0  0  0
 13 21  1  0  0  0  0
 14 15  2  0  0  0  0
 14 20  1  0  0  0  0
 14 21  1  0  0  0  0
 15 16  1  0  0  0  0
 15 24  1  0  0  0  0
 16 25  1  0  0  0  0
 17 20  2  0  0  0  0
 17 26  1  0  0  0  0
 18 27  1  0  0  0  0
 19 28  1  0  0  0  0
 20 29  1  0  0  0  0
 22 30  1  0  0  0  0
 22 31  1  0  0  0  0
 22 32  1  0  0  0  0
 23 33  1  0  0  0  0
 23 34  1  0  0  0  0
 23 35  1  0  0  0  0
 24 36  1  0  0  0  0
 24 37  1  0  0  0  0
 24 38  1  0  0  0  0
M  END
> <SCORE>
0.0281201

$$$$
6MSC_97_JY7_B_803
          06102512283D 1   1.00000     0.00000     0
            
 38 41  0  0  0  0            999 V2000
  -47.1350    3.8290   22.3420 F   0  0  0  0  0  0  0  0  0  0  0  0
  -45.8430    0.3390   25.3290 O   0  0  0  0  0  0  0  0  0  0  0  0
  -45.6690    2.9450   28.3970 N   0  0  0  0  0  0  0  0  0  0  0  0
  -45.7740    2.0790   27.3770 N   0  0  0  0  0  0  0  0  0  0  0  0
  -48.7666    9.2440   25.1306 N   0  0  0  0  0  0  0  0  0  0  0  0
  -46.6950    6.3250   28.6840 N   0  0  0  0  0  0  0  0  0  0  0  0
  -46.1140    5.1870   29.1730 N   0  0  0  0  0  0  0  0  0  0  0  0
  -46.9130    3.3840   23.6120 C   0  0  0  0  0  0  0  0  0  0  0  0
  -46.2470    1.6140   25.0440 C   0  0  0  0  0  0  0  0  0  0  0  0
  -46.0960    4.1980   28.2230 C   0  0  0  0  0  0  0  0  0  0  0  0
  -46.2530    2.5110   26.1570 C   0  0  0  0  0  0  0  0  0  0  0  0
  -46.6480    3.8620   25.9330 C   0  0  0  0  0  0  0  0  0  0  0  0
  -46.6640    4.7430   27.0590 C   0  0  0  0  0  0  0  0  0  0  0  0
  -47.6660    7.1730   26.6360 C   0  0  0  0  0  0  0  0  0  0  0  0
  -49.0666    7.3656   26.6378 C   0  0  0  0  0  0  0  0  0  0  0  0
  -49.5365    8.4217   25.8586 C   0  0  0  0  0  0  0  0  0  0  0  0
  -47.4466    9.0303   25.1554 C   0  0  0  0  0  0  0  0  0  0  0  0
  -46.5840    2.0530   23.7760 C   0  0  0  0  0  0  0  0  0  0  0  0
  -46.9710    4.2830   24.6210 C   0  0  0  0  0  0  0  0  0  0  0  0
  -46.8476    8.0208   25.8850 C   0  0  0  0  0  0  0  0  0  0  0  0
  -47.0290    6.0770   27.4230 C   0  0  0  0  0  0  0  0  0  0  0  0
  -45.8138   -0.6102   24.2593 C   0  0  0  0  0  0  0  0  0  0  0  0
  -45.5850    5.1910   30.5290 C   0  0  0  0  0  0  0  0  0  0  0  0
  -50.0295    6.5259   27.4454 C   0  0  0  0  0  0  0  0  0  0  0  0
  -50.5240    8.5783   25.8412 H   0  0  0  0  0  0  0  0  0  0  0  0
  -46.8603    9.6347   24.6160 H   0  0  0  0  0  0  0  0  0  0  0  0
  -46.5892    1.4233   22.9992 H   0  0  0  0  0  0  0  0  0  0  0  0
  -47.2379    5.2301   24.4427 H   0  0  0  0  0  0  0  0  0  0  0  0
  -45.8550    7.9003   25.8755 H   0  0  0  0  0  0  0  0  0  0  0  0
  -45.5018   -1.4945   24.6068 H   0  0  0  0  0  0  0  0  0  0  0  0
  -46.7319   -0.7080   23.8753 H   0  0  0  0  0  0  0  0  0  0  0  0
  -45.1872   -0.2917   23.5481 H   0  0  0  0  0  0  0  0  0  0  0  0
  -45.1961    4.2937   30.7377 H   0  0  0  0  0  0  0  0  0  0  0  0
  -44.8733    5.8891   30.6071 H   0  0  0  0  0  0  0  0  0  0  0  0
  -46.3222    5.3929   31.1738 H   0  0  0  0  0  0  0  0  0  0  0  0
  -49.5224    5.8196   27.9393 H   0  0  0  0  0  0  0  0  0  0  0  0
  -50.5123    7.1084   28.0993 H   0  0  0  0  0  0  0  0  0  0  0  0
  -50.6907    6.0941   26.8320 H   0  0  0  0  0  0  0  0  0  0  0  0
  1  8  1  0  0  0  0
  2  9  1  0  0  0  0
  2 22  1  0  0  0  0
  3  4  2  0  0  0  0
  3 10  1  0  0  0  0
  4 11  1  0  0  0  0
  5 16  2  0  0  0  0
  5 17  1  0  0  0  0
  6  7  1  0  0  0  0
  6 21  2  0  0  0  0
  7 10  1  0  0  0  0
  7 23  1  0  0  0  0
  8 18  2  0  0  0  0
  8 19  1  0  0  0  0
  9 11  2  0  0  0  0
  9 18  1  0  0  0  0
 10 13  2  0  0  0  0
 11 12  1  0  0  0  0
 12 13  1  0  0  0  0
 12 19  2  0  0  0  0
 13 21  1  0  0  0  0
 14 15  2  0  0  0  0
 14 20  1  0  0  0  0
 14 21  1  0  0  0  0
 15 16  1  0  0  0  0
 15 24  1  0  0  0  0
 16 25  1  0  0  0  0
 17 20  2  0  0  0  0
 17 26  1  0  0  0  0
 18 27  1  0  0  0  0
 19 28  1  0  0  0  0
 20 29  1  0  0  0  0
 22 30  1  0  0  0  0
 22 31  1  0  0  0  0
 22 32  1  0  0  0  0
 23 33  1  0  0  0  0
 23 34  1  0  0  0  0
 23 35  1  0  0  0  0
 24 36  1  0  0  0  0
 24 37  1  0  0  0  0
 24 38  1  0  0  0  0
M  END
> <SCORE>
0.0281201

$$$$
