6MSC_97_JY7_A_803
          06102512283D 1   1.00000     0.00000     0
            
 38 41  0  0  0  0            999 V2000
  -26.0134  -10.9632    4.8201 F   0  0  0  0  0  0  0  0  0  0  0  0
  -29.7350  -11.1111    7.7970 O   0  0  0  0  0  0  0  0  0  0  0  0
  -27.2966  -10.6354   10.9758 N   0  0  0  0  0  0  0  0  0  0  0  0
  -28.1022  -10.7380    9.9127 N   0  0  0  0  0  0  0  0  0  0  0  0
  -20.6191   -9.1556    7.3681 N   0  0  0  0  0  0  0  0  0  0  0  0
  -23.8425   -9.8823   11.1918 N   0  0  0  0  0  0  0  0  0  0  0  0
  -25.0509  -10.1966   11.7545 N   0  0  0  0  0  0  0  0  0  0  0  0
  -26.5317  -10.8034    6.0729 C   0  0  0  0  0  0  0  0  0  0  0  0
  -28.4125  -10.9155    7.5074 C   0  0  0  0  0  0  0  0  0  0  0  0
  -25.9990  -10.3919   10.7821 C   0  0  0  0  0  0  0  0  0  0  0  0
  -27.5731  -10.6706    8.6370 C   0  0  0  0  0  0  0  0  0  0  0  0
  -26.1872  -10.4623    8.4082 C   0  0  0  0  0  0  0  0  0  0  0  0
  -25.3572  -10.2113    9.5446 C   0  0  0  0  0  0  0  0  0  0  0  0
  -22.8215   -9.5850    9.0231 C   0  0  0  0  0  0  0  0  0  0  0  0
  -22.7116   -8.3831    8.2954 C   0  0  0  0  0  0  0  0  0  0  0  0
  -21.5845   -8.2438    7.4942 C   0  0  0  0  0  0  0  0  0  0  0  0
  -20.7560  -10.2871    8.0705 C   0  0  0  0  0  0  0  0  0  0  0  0
  -27.8890  -10.9720    6.2295 C   0  0  0  0  0  0  0  0  0  0  0  0
  -25.6806  -10.5438    7.0887 C   0  0  0  0  0  0  0  0  0  0  0  0
  -21.8243  -10.5531    8.9076 C   0  0  0  0  0  0  0  0  0  0  0  0
  -24.0129   -9.8734    9.8783 C   0  0  0  0  0  0  0  0  0  0  0  0
  -30.6320  -11.3599    6.7128 C   0  0  0  0  0  0  0  0  0  0  0  0
  -25.1456  -10.2925   13.2067 C   0  0  0  0  0  0  0  0  0  0  0  0
  -23.7319   -7.2749    8.3518 C   0  0  0  0  0  0  0  0  0  0  0  0
  -21.4902   -7.3958    6.9728 H   0  0  0  0  0  0  0  0  0  0  0  0
  -20.0423  -10.9824    7.9846 H   0  0  0  0  0  0  0  0  0  0  0  0
  -28.4808  -11.1313    5.4393 H   0  0  0  0  0  0  0  0  0  0  0  0
  -24.7055  -10.4110    6.9112 H   0  0  0  0  0  0  0  0  0  0  0  0
  -21.8800  -11.4133    9.4146 H   0  0  0  0  0  0  0  0  0  0  0  0
  -31.5586  -11.4831    7.0683 H   0  0  0  0  0  0  0  0  0  0  0  0
  -30.6171  -10.5834    6.0829 H   0  0  0  0  0  0  0  0  0  0  0  0
  -30.3481  -12.1874    6.2285 H   0  0  0  0  0  0  0  0  0  0  0  0
  -26.0828  -10.5273   13.4649 H   0  0  0  0  0  0  0  0  0  0  0  0
  -24.5218  -11.0016   13.5354 H   0  0  0  0  0  0  0  0  0  0  0  0
  -24.8972   -9.4144   13.6157 H   0  0  0  0  0  0  0  0  0  0  0  0
  -24.4733   -7.5355    8.9702 H   0  0  0  0  0  0  0  0  0  0  0  0
  -23.2975   -6.4385    8.6860 H   0  0  0  0  0  0  0  0  0  0  0  0
  -24.1019   -7.1155    7.4366 H   0  0  0  0  0  0  0  0  0  0  0  0
  1  8  1  0  0  0  0
  2  9  1  0  0  0  0
  2 22  1  0  0  0  0
  3  4  2  0  0  0  0
  3 10  1  0  0  0  0
  4 11  1  0  0  0  0
  5 16  2  0  0  0  0
  5 17  1  0  0  0  0
  6  7  1  0  0  0  0
  6 21  2  0  0  0  0
  7 10  1  0  0  0  0
  7 23  1  0  0  0  0
  8 18  2  0  0  0  0
  8 19  1  0  0  0  0
  9 11  2  0  0  0  0
  9 18  1  0  0  0  0
 10 13  2  0  0  0  0
 11 12  1  0  0  0  0
 12 13  1  0  0  0  0
 12 19  2  0  0  0  0
 13 21  1  0  0  0  0
 14 15  2  0  0  0  0
 14 20  1  0  0  0  0
 14 21  1  0  0  0  0
 15 16  1  0  0  0  0
 15 24  1  0  0  0  0
 16 25  1  0  0  0  0
 17 20  2  0  0  0  0
 17 26  1  0  0  0  0
 18 27  1  0  0  0  0
 19 28  1  0  0  0  0
 20 29  1  0  0  0  0
 22 30  1  0  0  0  0
 22 31  1  0  0  0  0
 22 32  1  0  0  0  0
 23 33  1  0  0  0  0
 23 34  1  0  0  0  0
 23 35  1  0  0  0  0
 24 36  1  0  0  0  0
 24 37  1  0  0  0  0
 24 38  1  0  0  0  0
M  END
> <SCORE>
-1.72838

$$$$
6MSC_97_JY7_A_803
          06102512283D 1   1.00000     0.00000     0
            
 38 41  0  0  0  0            999 V2000
  -26.0134  -10.9632    4.8201 F   0  0  0  0  0  0  0  0  0  0  0  0
  -29.7350  -11.1111    7.7970 O   0  0  0  0  0  0  0  0  0  0  0  0
  -27.2966  -10.6354   10.9758 N   0  0  0  0  0  0  0  0  0  0  0  0
  -28.1022  -10.7380    9.9127 N   0  0  0  0  0  0  0  0  0  0  0  0
  -20.6191   -9.1556    7.3681 N   0  0  0  0  0  0  0  0  0  0  0  0
  -23.8425   -9.8823   11.1918 N   0  0  0  0  0  0  0  0  0  0  0  0
  -25.0509  -10.1966   11.7545 N   0  0  0  0  0  0  0  0  0  0  0  0
  -26.5317  -10.8034    6.0729 C   0  0  0  0  0  0  0  0  0  0  0  0
  -28.4125  -10.9155    7.5074 C   0  0  0  0  0  0  0  0  0  0  0  0
  -25.9990  -10.3919   10.7821 C   0  0  0  0  0  0  0  0  0  0  0  0
  -27.5731  -10.6706    8.6370 C   0  0  0  0  0  0  0  0  0  0  0  0
  -26.1872  -10.4623    8.4082 C   0  0  0  0  0  0  0  0  0  0  0  0
  -25.3572  -10.2113    9.5446 C   0  0  0  0  0  0  0  0  0  0  0  0
  -22.8215   -9.5850    9.0231 C   0  0  0  0  0  0  0  0  0  0  0  0
  -22.7116   -8.3831    8.2954 C   0  0  0  0  0  0  0  0  0  0  0  0
  -21.5845   -8.2438    7.4942 C   0  0  0  0  0  0  0  0  0  0  0  0
  -20.7560  -10.2871    8.0705 C   0  0  0  0  0  0  0  0  0  0  0  0
  -27.8890  -10.9720    6.2295 C   0  0  0  0  0  0  0  0  0  0  0  0
  -25.6806  -10.5438    7.0887 C   0  0  0  0  0  0  0  0  0  0  0  0
  -21.8243  -10.5531    8.9076 C   0  0  0  0  0  0  0  0  0  0  0  0
  -24.0129   -9.8734    9.8783 C   0  0  0  0  0  0  0  0  0  0  0  0
  -30.6320  -11.3599    6.7128 C   0  0  0  0  0  0  0  0  0  0  0  0
  -25.1456  -10.2925   13.2067 C   0  0  0  0  0  0  0  0  0  0  0  0
  -23.7319   -7.2749    8.3518 C   0  0  0  0  0  0  0  0  0  0  0  0
  -21.4902   -7.3958    6.9728 H   0  0  0  0  0  0  0  0  0  0  0  0
  -20.0423  -10.9824    7.9846 H   0  0  0  0  0  0  0  0  0  0  0  0
  -28.4808  -11.1313    5.4393 H   0  0  0  0  0  0  0  0  0  0  0  0
  -24.7055  -10.4110    6.9112 H   0  0  0  0  0  0  0  0  0  0  0  0
  -21.8800  -11.4133    9.4146 H   0  0  0  0  0  0  0  0  0  0  0  0
  -31.5586  -11.4831    7.0683 H   0  0  0  0  0  0  0  0  0  0  0  0
  -30.6171  -10.5834    6.0829 H   0  0  0  0  0  0  0  0  0  0  0  0
  -30.3481  -12.1874    6.2285 H   0  0  0  0  0  0  0  0  0  0  0  0
  -26.0828  -10.5273   13.4649 H   0  0  0  0  0  0  0  0  0  0  0  0
  -24.5218  -11.0016   13.5354 H   0  0  0  0  0  0  0  0  0  0  0  0
  -24.8972   -9.4144   13.6157 H   0  0  0  0  0  0  0  0  0  0  0  0
  -24.4733   -7.5355    8.9702 H   0  0  0  0  0  0  0  0  0  0  0  0
  -23.2975   -6.4385    8.6860 H   0  0  0  0  0  0  0  0  0  0  0  0
  -24.1019   -7.1155    7.4366 H   0  0  0  0  0  0  0  0  0  0  0  0
  1  8  1  0  0  0  0
  2  9  1  0  0  0  0
  2 22  1  0  0  0  0
  3  4  2  0  0  0  0
  3 10  1  0  0  0  0
  4 11  1  0  0  0  0
  5 16  2  0  0  0  0
  5 17  1  0  0  0  0
  6  7  1  0  0  0  0
  6 21  2  0  0  0  0
  7 10  1  0  0  0  0
  7 23  1  0  0  0  0
  8 18  2  0  0  0  0
  8 19  1  0  0  0  0
  9 11  2  0  0  0  0
  9 18  1  0  0  0  0
 10 13  2  0  0  0  0
 11 12  1  0  0  0  0
 12 13  1  0  0  0  0
 12 19  2  0  0  0  0
 13 21  1  0  0  0  0
 14 15  2  0  0  0  0
 14 20  1  0  0  0  0
 14 21  1  0  0  0  0
 15 16  1  0  0  0  0
 15 24  1  0  0  0  0
 16 25  1  0  0  0  0
 17 20  2  0  0  0  0
 17 26  1  0  0  0  0
 18 27  1  0  0  0  0
 19 28  1  0  0  0  0
 20 29  1  0  0  0  0
 22 30  1  0  0  0  0
 22 31  1  0  0  0  0
 22 32  1  0  0  0  0
 23 33  1  0  0  0  0
 23 34  1  0  0  0  0
 23 35  1  0  0  0  0
 24 36  1  0  0  0  0
 24 37  1  0  0  0  0
 24 38  1  0  0  0  0
M  END
> <SCORE>
-1.72838

$$$$
6MSC_97_JY7_A_803
          06102512283D 1   1.00000     0.00000     0
            
 38 41  0  0  0  0            999 V2000
  -26.0134  -10.9632    4.8201 F   0  0  0  0  0  0  0  0  0  0  0  0
  -29.7350  -11.1111    7.7970 O   0  0  0  0  0  0  0  0  0  0  0  0
  -27.2966  -10.6354   10.9758 N   0  0  0  0  0  0  0  0  0  0  0  0
  -28.1022  -10.7380    9.9127 N   0  0  0  0  0  0  0  0  0  0  0  0
  -20.6191   -9.1556    7.3681 N   0  0  0  0  0  0  0  0  0  0  0  0
  -23.8425   -9.8823   11.1918 N   0  0  0  0  0  0  0  0  0  0  0  0
  -25.0509  -10.1966   11.7545 N   0  0  0  0  0  0  0  0  0  0  0  0
  -26.5317  -10.8034    6.0729 C   0  0  0  0  0  0  0  0  0  0  0  0
  -28.4125  -10.9155    7.5074 C   0  0  0  0  0  0  0  0  0  0  0  0
  -25.9990  -10.3919   10.7821 C   0  0  0  0  0  0  0  0  0  0  0  0
  -27.5731  -10.6706    8.6370 C   0  0  0  0  0  0  0  0  0  0  0  0
  -26.1872  -10.4623    8.4082 C   0  0  0  0  0  0  0  0  0  0  0  0
  -25.3572  -10.2113    9.5446 C   0  0  0  0  0  0  0  0  0  0  0  0
  -22.8215   -9.5850    9.0231 C   0  0  0  0  0  0  0  0  0  0  0  0
  -22.7116   -8.3831    8.2954 C   0  0  0  0  0  0  0  0  0  0  0  0
  -21.5845   -8.2438    7.4942 C   0  0  0  0  0  0  0  0  0  0  0  0
  -20.7560  -10.2871    8.0705 C   0  0  0  0  0  0  0  0  0  0  0  0
  -27.8890  -10.9720    6.2295 C   0  0  0  0  0  0  0  0  0  0  0  0
  -25.6806  -10.5438    7.0887 C   0  0  0  0  0  0  0  0  0  0  0  0
  -21.8243  -10.5531    8.9076 C   0  0  0  0  0  0  0  0  0  0  0  0
  -24.0129   -9.8734    9.8783 C   0  0  0  0  0  0  0  0  0  0  0  0
  -30.6320  -11.3599    6.7128 C   0  0  0  0  0  0  0  0  0  0  0  0
  -25.1456  -10.2925   13.2067 C   0  0  0  0  0  0  0  0  0  0  0  0
  -23.7319   -7.2749    8.3518 C   0  0  0  0  0  0  0  0  0  0  0  0
  -21.4902   -7.3958    6.9728 H   0  0  0  0  0  0  0  0  0  0  0  0
  -20.0423  -10.9824    7.9846 H   0  0  0  0  0  0  0  0  0  0  0  0
  -28.4808  -11.1313    5.4393 H   0  0  0  0  0  0  0  0  0  0  0  0
  -24.7055  -10.4110    6.9112 H   0  0  0  0  0  0  0  0  0  0  0  0
  -21.8800  -11.4133    9.4146 H   0  0  0  0  0  0  0  0  0  0  0  0
  -31.5586  -11.4831    7.0683 H   0  0  0  0  0  0  0  0  0  0  0  0
  -30.6171  -10.5834    6.0829 H   0  0  0  0  0  0  0  0  0  0  0  0
  -30.3481  -12.1874    6.2285 H   0  0  0  0  0  0  0  0  0  0  0  0
  -26.0828  -10.5273   13.4649 H   0  0  0  0  0  0  0  0  0  0  0  0
  -24.5218  -11.0016   13.5354 H   0  0  0  0  0  0  0  0  0  0  0  0
  -24.8972   -9.4144   13.6157 H   0  0  0  0  0  0  0  0  0  0  0  0
  -24.4733   -7.5355    8.9702 H   0  0  0  0  0  0  0  0  0  0  0  0
  -23.2975   -6.4385    8.6860 H   0  0  0  0  0  0  0  0  0  0  0  0
  -24.1019   -7.1155    7.4366 H   0  0  0  0  0  0  0  0  0  0  0  0
  1  8  1  0  0  0  0
  2  9  1  0  0  0  0
  2 22  1  0  0  0  0
  3  4  2  0  0  0  0
  3 10  1  0  0  0  0
  4 11  1  0  0  0  0
  5 16  2  0  0  0  0
  5 17  1  0  0  0  0
  6  7  1  0  0  0  0
  6 21  2  0  0  0  0
  7 10  1  0  0  0  0
  7 23  1  0  0  0  0
  8 18  2  0  0  0  0
  8 19  1  0  0  0  0
  9 11  2  0  0  0  0
  9 18  1  0  0  0  0
 10 13  2  0  0  0  0
 11 12  1  0  0  0  0
 12 13  1  0  0  0  0
 12 19  2  0  0  0  0
 13 21  1  0  0  0  0
 14 15  2  0  0  0  0
 14 20  1  0  0  0  0
 14 21  1  0  0  0  0
 15 16  1  0  0  0  0
 15 24  1  0  0  0  0
 16 25  1  0  0  0  0
 17 20  2  0  0  0  0
 17 26  1  0  0  0  0
 18 27  1  0  0  0  0
 19 28  1  0  0  0  0
 20 29  1  0  0  0  0
 22 30  1  0  0  0  0
 22 31  1  0  0  0  0
 22 32  1  0  0  0  0
 23 33  1  0  0  0  0
 23 34  1  0  0  0  0
 23 35  1  0  0  0  0
 24 36  1  0  0  0  0
 24 37  1  0  0  0  0
 24 38  1  0  0  0  0
M  END
> <SCORE>
-1.72838

$$$$
