5SK9_84_KD4_A_803
          06102512283D 1   1.00000     0.00000     0
            
 23 24  0  0  0  0            999 V2000
  -28.2940  -85.4440   18.1890 Cl  0  0  0  0  0  0  0  0  0  0  0  0
  -21.7680  -85.9890   17.6170 O   0  0  0  0  0  0  0  0  0  0  0  0
  -26.1660  -86.1020   19.4730 N   0  0  0  0  0  0  0  0  0  0  0  0
  -24.3990  -85.4950   17.3730 N   0  0  0  0  0  0  0  0  0  0  0  0
  -26.5740  -85.5920   18.3520 C   0  0  0  0  0  0  0  0  0  0  0  0
  -22.5530  -86.3220   18.6920 C   0  0  0  0  0  0  0  0  0  0  0  0
  -23.9440  -86.0490   18.5330 C   0  0  0  0  0  0  0  0  0  0  0  0
  -24.8220  -86.3110   19.6050 C   0  0  0  0  0  0  0  0  0  0  0  0
  -25.6930  -85.2550   17.2790 C   0  0  0  0  0  0  0  0  0  0  0  0
  -22.0970  -86.9080   19.8610 C   0  0  0  0  0  0  0  0  0  0  0  0
  -24.3310  -86.9620   20.7570 C   0  0  0  0  0  0  0  0  0  0  0  0
  -22.9980  -87.2390   20.8690 C   0  0  0  0  0  0  0  0  0  0  0  0
  -20.3604  -86.2344   17.7041 C   0  0  0  0  0  0  0  0  0  0  0  0
  -26.2010  -84.6780   15.9900 C   0  0  0  0  0  0  0  0  0  0  0  0
  -21.1216  -87.0931   19.9808 H   0  0  0  0  0  0  0  0  0  0  0  0
  -24.9588  -87.2205   21.4912 H   0  0  0  0  0  0  0  0  0  0  0  0
  -22.6613  -87.6906   21.6953 H   0  0  0  0  0  0  0  0  0  0  0  0
  -19.9185  -85.9449   16.8550 H   0  0  0  0  0  0  0  0  0  0  0  0
  -19.9790  -85.7185   18.4711 H   0  0  0  0  0  0  0  0  0  0  0  0
  -20.2006  -87.2111   17.8469 H   0  0  0  0  0  0  0  0  0  0  0  0
  -27.1903  -84.5457   16.0510 H   0  0  0  0  0  0  0  0  0  0  0  0
  -25.7569  -83.7982   15.8207 H   0  0  0  0  0  0  0  0  0  0  0  0
  -25.9943  -85.3056   15.2395 H   0  0  0  0  0  0  0  0  0  0  0  0
  1  5  1  0  0  0  0
  2  6  1  0  0  0  0
  2 13  1  0  0  0  0
  3  5  2  0  0  0  0
  3  8  1  0  0  0  0
  4  7  1  0  0  0  0
  4  9  2  0  0  0  0
  5  9  1  0  0  0  0
  6  7  2  0  0  0  0
  6 10  1  0  0  0  0
  7  8  1  0  0  0  0
  8 11  2  0  0  0  0
  9 14  1  0  0  0  0
 10 12  2  0  0  0  0
 10 15  1  0  0  0  0
 11 12  1  0  0  0  0
 11 16  1  0  0  0  0
 12 17  1  0  0  0  0
 13 18  1  0  0  0  0
 13 19  1  0  0  0  0
 13 20  1  0  0  0  0
 14 21  1  0  0  0  0
 14 22  1  0  0  0  0
 14 23  1  0  0  0  0
M  END
> <SCORE>
0

$$$$
5SK9_84_KD4_A_803
          06102512283D 1   1.00000     0.00000     0
            
 23 24  0  0  0  0            999 V2000
  -28.2940  -85.4440   18.1890 Cl  0  0  0  0  0  0  0  0  0  0  0  0
  -21.7680  -85.9890   17.6170 O   0  0  0  0  0  0  0  0  0  0  0  0
  -26.1660  -86.1020   19.4730 N   0  0  0  0  0  0  0  0  0  0  0  0
  -24.3990  -85.4950   17.3730 N   0  0  0  0  0  0  0  0  0  0  0  0
  -26.5740  -85.5920   18.3520 C   0  0  0  0  0  0  0  0  0  0  0  0
  -22.5530  -86.3220   18.6920 C   0  0  0  0  0  0  0  0  0  0  0  0
  -23.9440  -86.0490   18.5330 C   0  0  0  0  0  0  0  0  0  0  0  0
  -24.8220  -86.3110   19.6050 C   0  0  0  0  0  0  0  0  0  0  0  0
  -25.6930  -85.2550   17.2790 C   0  0  0  0  0  0  0  0  0  0  0  0
  -22.0970  -86.9080   19.8610 C   0  0  0  0  0  0  0  0  0  0  0  0
  -24.3310  -86.9620   20.7570 C   0  0  0  0  0  0  0  0  0  0  0  0
  -22.9980  -87.2390   20.8690 C   0  0  0  0  0  0  0  0  0  0  0  0
  -20.3604  -86.2344   17.7041 C   0  0  0  0  0  0  0  0  0  0  0  0
  -26.2010  -84.6780   15.9900 C   0  0  0  0  0  0  0  0  0  0  0  0
  -21.1216  -87.0931   19.9808 H   0  0  0  0  0  0  0  0  0  0  0  0
  -24.9588  -87.2205   21.4912 H   0  0  0  0  0  0  0  0  0  0  0  0
  -22.6613  -87.6906   21.6953 H   0  0  0  0  0  0  0  0  0  0  0  0
  -19.9185  -85.9449   16.8550 H   0  0  0  0  0  0  0  0  0  0  0  0
  -19.9790  -85.7185   18.4711 H   0  0  0  0  0  0  0  0  0  0  0  0
  -20.2006  -87.2111   17.8469 H   0  0  0  0  0  0  0  0  0  0  0  0
  -27.1903  -84.5457   16.0510 H   0  0  0  0  0  0  0  0  0  0  0  0
  -25.7569  -83.7982   15.8207 H   0  0  0  0  0  0  0  0  0  0  0  0
  -25.9943  -85.3056   15.2395 H   0  0  0  0  0  0  0  0  0  0  0  0
  1  5  1  0  0  0  0
  2  6  1  0  0  0  0
  2 13  1  0  0  0  0
  3  5  2  0  0  0  0
  3  8  1  0  0  0  0
  4  7  1  0  0  0  0
  4  9  2  0  0  0  0
  5  9  1  0  0  0  0
  6  7  2  0  0  0  0
  6 10  1  0  0  0  0
  7  8  1  0  0  0  0
  8 11  2  0  0  0  0
  9 14  1  0  0  0  0
 10 12  2  0  0  0  0
 10 15  1  0  0  0  0
 11 12  1  0  0  0  0
 11 16  1  0  0  0  0
 12 17  1  0  0  0  0
 13 18  1  0  0  0  0
 13 19  1  0  0  0  0
 13 20  1  0  0  0  0
 14 21  1  0  0  0  0
 14 22  1  0  0  0  0
 14 23  1  0  0  0  0
M  END
> <SCORE>
0

$$$$
5SK9_84_KD4_A_803
          06102512283D 1   1.00000     0.00000     0
            
 23 24  0  0  0  0            999 V2000
  -28.2940  -85.4440   18.1890 Cl  0  0  0  0  0  0  0  0  0  0  0  0
  -21.7680  -85.9890   17.6170 O   0  0  0  0  0  0  0  0  0  0  0  0
  -26.1660  -86.1020   19.4730 N   0  0  0  0  0  0  0  0  0  0  0  0
  -24.3990  -85.4950   17.3730 N   0  0  0  0  0  0  0  0  0  0  0  0
  -26.5740  -85.5920   18.3520 C   0  0  0  0  0  0  0  0  0  0  0  0
  -22.5530  -86.3220   18.6920 C   0  0  0  0  0  0  0  0  0  0  0  0
  -23.9440  -86.0490   18.5330 C   0  0  0  0  0  0  0  0  0  0  0  0
  -24.8220  -86.3110   19.6050 C   0  0  0  0  0  0  0  0  0  0  0  0
  -25.6930  -85.2550   17.2790 C   0  0  0  0  0  0  0  0  0  0  0  0
  -22.0970  -86.9080   19.8610 C   0  0  0  0  0  0  0  0  0  0  0  0
  -24.3310  -86.9620   20.7570 C   0  0  0  0  0  0  0  0  0  0  0  0
  -22.9980  -87.2390   20.8690 C   0  0  0  0  0  0  0  0  0  0  0  0
  -20.3604  -86.2344   17.7041 C   0  0  0  0  0  0  0  0  0  0  0  0
  -26.2010  -84.6780   15.9900 C   0  0  0  0  0  0  0  0  0  0  0  0
  -21.1216  -87.0931   19.9808 H   0  0  0  0  0  0  0  0  0  0  0  0
  -24.9588  -87.2205   21.4912 H   0  0  0  0  0  0  0  0  0  0  0  0
  -22.6613  -87.6906   21.6953 H   0  0  0  0  0  0  0  0  0  0  0  0
  -19.9185  -85.9449   16.8550 H   0  0  0  0  0  0  0  0  0  0  0  0
  -19.9790  -85.7185   18.4711 H   0  0  0  0  0  0  0  0  0  0  0  0
  -20.2006  -87.2111   17.8469 H   0  0  0  0  0  0  0  0  0  0  0  0
  -27.1903  -84.5457   16.0510 H   0  0  0  0  0  0  0  0  0  0  0  0
  -25.7569  -83.7982   15.8207 H   0  0  0  0  0  0  0  0  0  0  0  0
  -25.9943  -85.3056   15.2395 H   0  0  0  0  0  0  0  0  0  0  0  0
  1  5  1  0  0  0  0
  2  6  1  0  0  0  0
  2 13  1  0  0  0  0
  3  5  2  0  0  0  0
  3  8  1  0  0  0  0
  4  7  1  0  0  0  0
  4  9  2  0  0  0  0
  5  9  1  0  0  0  0
  6  7  2  0  0  0  0
  6 10  1  0  0  0  0
  7  8  1  0  0  0  0
  8 11  2  0  0  0  0
  9 14  1  0  0  0  0
 10 12  2  0  0  0  0
 10 15  1  0  0  0  0
 11 12  1  0  0  0  0
 11 16  1  0  0  0  0
 12 17  1  0  0  0  0
 13 18  1  0  0  0  0
 13 19  1  0  0  0  0
 13 20  1  0  0  0  0
 14 21  1  0  0  0  0
 14 22  1  0  0  0  0
 14 23  1  0  0  0  0
M  END
> <SCORE>
0

$$$$
