5SK9_84_ZN_A_801
          06102512283D 1   1.00000     0.00000     0
            
  1  0  0  0  0  0            999 V2000
  -32.3560  -84.7460   25.3120 Zn  0  2  0  0  0  0  0  0  0  0  0  0
M  CHG  1   1   2
M  END
> <SCORE>
0

$$$$
5SK9_84_ZN_A_801
          06102512283D 1   1.00000     0.00000     0
            
  1  0  0  0  0  0            999 V2000
  -32.3560  -84.7460   25.3120 Zn  0  2  0  0  0  0  0  0  0  0  0  0
M  CHG  1   1   2
M  END
> <SCORE>
0

$$$$
5SK9_84_ZN_A_801
          06102512283D 1   1.00000     0.00000     0
            
  1  0  0  0  0  0            999 V2000
  -32.3560  -84.7460   25.3120 Zn  0  2  0  0  0  0  0  0  0  0  0  0
M  CHG  1   1   2
M  END
> <SCORE>
0

$$$$
