6KDZ_92_D79_A_803
          06102512283D 1   1.00000     0.00000     0
            
 43 47  0  0  0  0            999 V2000
  -43.0705   -6.4414   18.5092 O   0  0  0  0  0  0  0  0  0  0  0  0
  -47.3137   -9.8305   22.1516 N   0  0  0  0  0  0  0  0  0  0  0  0
  -43.9155   -7.5243   15.9989 N   0  0  0  0  0  0  0  0  0  0  0  0
  -48.3960   -8.0739   23.1447 N   0  0  0  0  0  0  0  0  0  0  0  0
  -49.6174   -9.3382   24.7633 N   0  0  0  0  0  0  0  0  0  0  0  0
  -46.9025   -7.9852   17.7880 N   0  0  0  0  0  0  0  0  0  0  0  0
  -44.6928   -7.4511   17.0953 N   0  0  0  0  0  0  0  0  0  0  0  0
  -48.1090  -10.2486   23.1533 N   0  0  0  0  0  0  0  0  0  0  0  0
  -44.3683   -8.3743   13.7761 N   0  0  0  0  0  0  0  0  0  0  0  0
  -48.7521   -9.1824   23.7370 C   0  0  0  0  0  0  0  0  0  0  0  0
  -44.3445   -6.9491   18.3194 C   0  0  0  0  0  0  0  0  0  0  0  0
  -47.5200   -8.5191   22.1938 C   0  0  0  0  0  0  0  0  0  0  0  0
  -45.9433   -7.9530   16.8491 C   0  0  0  0  0  0  0  0  0  0  0  0
  -44.6734   -8.0828   15.0499 C   0  0  0  0  0  0  0  0  0  0  0  0
  -46.5507   -7.5149   18.9319 C   0  0  0  0  0  0  0  0  0  0  0  0
  -49.7685  -10.5628   25.1457 C   0  0  0  0  0  0  0  0  0  0  0  0
  -48.2921  -11.5385   23.5867 C   0  0  0  0  0  0  0  0  0  0  0  0
  -45.9520   -8.3645   15.5457 C   0  0  0  0  0  0  0  0  0  0  0  0
  -45.4208   -8.9310   13.1499 C   0  0  0  0  0  0  0  0  0  0  0  0
  -45.2378   -6.9497   19.3121 C   0  0  0  0  0  0  0  0  0  0  0  0
  -49.1230  -11.7738   24.5989 C   0  0  0  0  0  0  0  0  0  0  0  0
  -47.0475   -8.9293   14.9303 C   0  0  0  0  0  0  0  0  0  0  0  0
  -46.6912   -9.2158   13.6284 C   0  0  0  0  0  0  0  0  0  0  0  0
  -46.8532   -7.5980   21.2727 C   0  0  0  0  0  0  0  0  0  0  0  0
  -47.6012   -7.5418   19.9627 C   0  0  0  0  0  0  0  0  0  0  0  0
  -50.7048  -10.8201   26.2627 C   0  0  0  0  0  0  0  0  0  0  0  0
  -47.5661  -12.6462   22.9165 C   0  0  0  0  0  0  0  0  0  0  0  0
  -43.4801   -8.2014   13.3505 H   0  0  0  0  0  0  0  0  0  0  0  0
  -45.2633   -9.1771   12.1936 H   0  0  0  0  0  0  0  0  0  0  0  0
  -45.0376   -6.6005   20.2275 H   0  0  0  0  0  0  0  0  0  0  0  0
  -49.2955  -12.6908   24.9583 H   0  0  0  0  0  0  0  0  0  0  0  0
  -47.9385   -9.1005   15.3506 H   0  0  0  0  0  0  0  0  0  0  0  0
  -47.3620   -9.6370   13.0180 H   0  0  0  0  0  0  0  0  0  0  0  0
  -46.8284   -6.6845   21.6788 H   0  0  0  0  0  0  0  0  0  0  0  0
  -45.9192   -7.9146   21.1069 H   0  0  0  0  0  0  0  0  0  0  0  0
  -48.1644   -6.7169   19.9135 H   0  0  0  0  0  0  0  0  0  0  0  0
  -48.1816   -8.3487   19.8534 H   0  0  0  0  0  0  0  0  0  0  0  0
  -50.7292  -11.8005   26.4581 H   0  0  0  0  0  0  0  0  0  0  0  0
  -50.3975  -10.3257   27.0758 H   0  0  0  0  0  0  0  0  0  0  0  0
  -51.6203  -10.5079   26.0089 H   0  0  0  0  0  0  0  0  0  0  0  0
  -47.8092  -13.5143   23.3496 H   0  0  0  0  0  0  0  0  0  0  0  0
  -47.8193  -12.6738   21.9495 H   0  0  0  0  0  0  0  0  0  0  0  0
  -46.5807  -12.4970   22.9990 H   0  0  0  0  0  0  0  0  0  0  0  0
  1 11  2  0  0  0  0
  2  8  1  0  0  0  0
  2 12  2  0  0  0  0
  3  7  1  0  0  0  0
  3 14  2  0  0  0  0
  4 10  2  0  0  0  0
  4 12  1  0  0  0  0
  5 10  1  0  0  0  0
  5 16  2  0  0  0  0
  6 13  2  0  0  0  0
  6 15  1  0  0  0  0
  7 11  1  0  0  0  0
  7 13  1  0  0  0  0
  8 10  1  0  0  0  0
  8 17  1  0  0  0  0
  9 14  1  0  0  0  0
  9 19  1  0  0  0  0
  9 28  1  0  0  0  0
 11 20  1  0  0  0  0
 12 24  1  0  0  0  0
 13 18  1  0  0  0  0
 14 18  1  0  0  0  0
 15 20  2  0  0  0  0
 15 25  1  0  0  0  0
 16 21  1  0  0  0  0
 16 26  1  0  0  0  0
 17 21  2  0  0  0  0
 17 27  1  0  0  0  0
 18 22  2  0  0  0  0
 19 23  2  0  0  0  0
 19 29  1  0  0  0  0
 20 30  1  0  0  0  0
 21 31  1  0  0  0  0
 22 23  1  0  0  0  0
 22 32  1  0  0  0  0
 23 33  1  0  0  0  0
 24 25  1  0  0  0  0
 24 34  1  0  0  0  0
 24 35  1  0  0  0  0
 25 36  1  0  0  0  0
 25 37  1  0  0  0  0
 26 38  1  0  0  0  0
 26 39  1  0  0  0  0
 26 40  1  0  0  0  0
 27 41  1  0  0  0  0
 27 42  1  0  0  0  0
 27 43  1  0  0  0  0
M  END
> <SCORE>
-1.21869

$$$$
6KDZ_92_D79_A_803
          06102512283D 1   1.00000     0.00000     0
            
 43 47  0  0  0  0            999 V2000
  -43.0705   -6.4414   18.5092 O   0  0  0  0  0  0  0  0  0  0  0  0
  -47.3137   -9.8305   22.1516 N   0  0  0  0  0  0  0  0  0  0  0  0
  -43.9155   -7.5243   15.9989 N   0  0  0  0  0  0  0  0  0  0  0  0
  -48.3960   -8.0739   23.1447 N   0  0  0  0  0  0  0  0  0  0  0  0
  -49.6174   -9.3382   24.7633 N   0  0  0  0  0  0  0  0  0  0  0  0
  -46.9025   -7.9852   17.7880 N   0  0  0  0  0  0  0  0  0  0  0  0
  -44.6928   -7.4511   17.0953 N   0  0  0  0  0  0  0  0  0  0  0  0
  -48.1090  -10.2486   23.1533 N   0  0  0  0  0  0  0  0  0  0  0  0
  -44.3683   -8.3743   13.7761 N   0  0  0  0  0  0  0  0  0  0  0  0
  -48.7521   -9.1824   23.7370 C   0  0  0  0  0  0  0  0  0  0  0  0
  -44.3445   -6.9491   18.3194 C   0  0  0  0  0  0  0  0  0  0  0  0
  -47.5200   -8.5191   22.1938 C   0  0  0  0  0  0  0  0  0  0  0  0
  -45.9433   -7.9530   16.8491 C   0  0  0  0  0  0  0  0  0  0  0  0
  -44.6734   -8.0828   15.0499 C   0  0  0  0  0  0  0  0  0  0  0  0
  -46.5507   -7.5149   18.9319 C   0  0  0  0  0  0  0  0  0  0  0  0
  -49.7685  -10.5628   25.1457 C   0  0  0  0  0  0  0  0  0  0  0  0
  -48.2921  -11.5385   23.5867 C   0  0  0  0  0  0  0  0  0  0  0  0
  -45.9520   -8.3645   15.5457 C   0  0  0  0  0  0  0  0  0  0  0  0
  -45.4208   -8.9310   13.1499 C   0  0  0  0  0  0  0  0  0  0  0  0
  -45.2378   -6.9497   19.3121 C   0  0  0  0  0  0  0  0  0  0  0  0
  -49.1230  -11.7738   24.5989 C   0  0  0  0  0  0  0  0  0  0  0  0
  -47.0475   -8.9293   14.9303 C   0  0  0  0  0  0  0  0  0  0  0  0
  -46.6912   -9.2158   13.6284 C   0  0  0  0  0  0  0  0  0  0  0  0
  -46.8532   -7.5980   21.2727 C   0  0  0  0  0  0  0  0  0  0  0  0
  -47.6012   -7.5418   19.9627 C   0  0  0  0  0  0  0  0  0  0  0  0
  -50.7048  -10.8201   26.2627 C   0  0  0  0  0  0  0  0  0  0  0  0
  -47.5661  -12.6462   22.9165 C   0  0  0  0  0  0  0  0  0  0  0  0
  -43.4801   -8.2014   13.3505 H   0  0  0  0  0  0  0  0  0  0  0  0
  -45.2633   -9.1771   12.1936 H   0  0  0  0  0  0  0  0  0  0  0  0
  -45.0376   -6.6005   20.2275 H   0  0  0  0  0  0  0  0  0  0  0  0
  -49.2955  -12.6908   24.9583 H   0  0  0  0  0  0  0  0  0  0  0  0
  -47.9385   -9.1005   15.3506 H   0  0  0  0  0  0  0  0  0  0  0  0
  -47.3620   -9.6370   13.0180 H   0  0  0  0  0  0  0  0  0  0  0  0
  -46.8284   -6.6845   21.6788 H   0  0  0  0  0  0  0  0  0  0  0  0
  -45.9192   -7.9146   21.1069 H   0  0  0  0  0  0  0  0  0  0  0  0
  -48.1644   -6.7169   19.9135 H   0  0  0  0  0  0  0  0  0  0  0  0
  -48.1816   -8.3487   19.8534 H   0  0  0  0  0  0  0  0  0  0  0  0
  -50.7292  -11.8005   26.4581 H   0  0  0  0  0  0  0  0  0  0  0  0
  -50.3975  -10.3257   27.0758 H   0  0  0  0  0  0  0  0  0  0  0  0
  -51.6203  -10.5079   26.0089 H   0  0  0  0  0  0  0  0  0  0  0  0
  -47.8092  -13.5143   23.3496 H   0  0  0  0  0  0  0  0  0  0  0  0
  -47.8193  -12.6738   21.9495 H   0  0  0  0  0  0  0  0  0  0  0  0
  -46.5807  -12.4970   22.9990 H   0  0  0  0  0  0  0  0  0  0  0  0
  1 11  2  0  0  0  0
  2  8  1  0  0  0  0
  2 12  2  0  0  0  0
  3  7  1  0  0  0  0
  3 14  2  0  0  0  0
  4 10  2  0  0  0  0
  4 12  1  0  0  0  0
  5 10  1  0  0  0  0
  5 16  2  0  0  0  0
  6 13  2  0  0  0  0
  6 15  1  0  0  0  0
  7 11  1  0  0  0  0
  7 13  1  0  0  0  0
  8 10  1  0  0  0  0
  8 17  1  0  0  0  0
  9 14  1  0  0  0  0
  9 19  1  0  0  0  0
  9 28  1  0  0  0  0
 11 20  1  0  0  0  0
 12 24  1  0  0  0  0
 13 18  1  0  0  0  0
 14 18  1  0  0  0  0
 15 20  2  0  0  0  0
 15 25  1  0  0  0  0
 16 21  1  0  0  0  0
 16 26  1  0  0  0  0
 17 21  2  0  0  0  0
 17 27  1  0  0  0  0
 18 22  2  0  0  0  0
 19 23  2  0  0  0  0
 19 29  1  0  0  0  0
 20 30  1  0  0  0  0
 21 31  1  0  0  0  0
 22 23  1  0  0  0  0
 22 32  1  0  0  0  0
 23 33  1  0  0  0  0
 24 25  1  0  0  0  0
 24 34  1  0  0  0  0
 24 35  1  0  0  0  0
 25 36  1  0  0  0  0
 25 37  1  0  0  0  0
 26 38  1  0  0  0  0
 26 39  1  0  0  0  0
 26 40  1  0  0  0  0
 27 41  1  0  0  0  0
 27 42  1  0  0  0  0
 27 43  1  0  0  0  0
M  END
> <SCORE>
-1.21869

$$$$
6KDZ_92_D79_A_803
          06102512283D 1   1.00000     0.00000     0
            
 43 47  0  0  0  0            999 V2000
  -43.0705   -6.4414   18.5092 O   0  0  0  0  0  0  0  0  0  0  0  0
  -47.3137   -9.8305   22.1516 N   0  0  0  0  0  0  0  0  0  0  0  0
  -43.9155   -7.5243   15.9989 N   0  0  0  0  0  0  0  0  0  0  0  0
  -48.3960   -8.0739   23.1447 N   0  0  0  0  0  0  0  0  0  0  0  0
  -49.6174   -9.3382   24.7633 N   0  0  0  0  0  0  0  0  0  0  0  0
  -46.9025   -7.9852   17.7880 N   0  0  0  0  0  0  0  0  0  0  0  0
  -44.6928   -7.4511   17.0953 N   0  0  0  0  0  0  0  0  0  0  0  0
  -48.1090  -10.2486   23.1533 N   0  0  0  0  0  0  0  0  0  0  0  0
  -44.3683   -8.3743   13.7761 N   0  0  0  0  0  0  0  0  0  0  0  0
  -48.7521   -9.1824   23.7370 C   0  0  0  0  0  0  0  0  0  0  0  0
  -44.3445   -6.9491   18.3194 C   0  0  0  0  0  0  0  0  0  0  0  0
  -47.5200   -8.5191   22.1938 C   0  0  0  0  0  0  0  0  0  0  0  0
  -45.9433   -7.9530   16.8491 C   0  0  0  0  0  0  0  0  0  0  0  0
  -44.6734   -8.0828   15.0499 C   0  0  0  0  0  0  0  0  0  0  0  0
  -46.5507   -7.5149   18.9319 C   0  0  0  0  0  0  0  0  0  0  0  0
  -49.7685  -10.5628   25.1457 C   0  0  0  0  0  0  0  0  0  0  0  0
  -48.2921  -11.5385   23.5867 C   0  0  0  0  0  0  0  0  0  0  0  0
  -45.9520   -8.3645   15.5457 C   0  0  0  0  0  0  0  0  0  0  0  0
  -45.4208   -8.9310   13.1499 C   0  0  0  0  0  0  0  0  0  0  0  0
  -45.2378   -6.9497   19.3121 C   0  0  0  0  0  0  0  0  0  0  0  0
  -49.1230  -11.7738   24.5989 C   0  0  0  0  0  0  0  0  0  0  0  0
  -47.0475   -8.9293   14.9303 C   0  0  0  0  0  0  0  0  0  0  0  0
  -46.6912   -9.2158   13.6284 C   0  0  0  0  0  0  0  0  0  0  0  0
  -46.8532   -7.5980   21.2727 C   0  0  0  0  0  0  0  0  0  0  0  0
  -47.6012   -7.5418   19.9627 C   0  0  0  0  0  0  0  0  0  0  0  0
  -50.7048  -10.8201   26.2627 C   0  0  0  0  0  0  0  0  0  0  0  0
  -47.5661  -12.6462   22.9165 C   0  0  0  0  0  0  0  0  0  0  0  0
  -43.4801   -8.2014   13.3505 H   0  0  0  0  0  0  0  0  0  0  0  0
  -45.2633   -9.1771   12.1936 H   0  0  0  0  0  0  0  0  0  0  0  0
  -45.0376   -6.6005   20.2275 H   0  0  0  0  0  0  0  0  0  0  0  0
  -49.2955  -12.6908   24.9583 H   0  0  0  0  0  0  0  0  0  0  0  0
  -47.9385   -9.1005   15.3506 H   0  0  0  0  0  0  0  0  0  0  0  0
  -47.3620   -9.6370   13.0180 H   0  0  0  0  0  0  0  0  0  0  0  0
  -46.8284   -6.6845   21.6788 H   0  0  0  0  0  0  0  0  0  0  0  0
  -45.9192   -7.9146   21.1069 H   0  0  0  0  0  0  0  0  0  0  0  0
  -48.1644   -6.7169   19.9135 H   0  0  0  0  0  0  0  0  0  0  0  0
  -48.1816   -8.3487   19.8534 H   0  0  0  0  0  0  0  0  0  0  0  0
  -50.7292  -11.8005   26.4581 H   0  0  0  0  0  0  0  0  0  0  0  0
  -50.3975  -10.3257   27.0758 H   0  0  0  0  0  0  0  0  0  0  0  0
  -51.6203  -10.5079   26.0089 H   0  0  0  0  0  0  0  0  0  0  0  0
  -47.8092  -13.5143   23.3496 H   0  0  0  0  0  0  0  0  0  0  0  0
  -47.8193  -12.6738   21.9495 H   0  0  0  0  0  0  0  0  0  0  0  0
  -46.5807  -12.4970   22.9990 H   0  0  0  0  0  0  0  0  0  0  0  0
  1 11  2  0  0  0  0
  2  8  1  0  0  0  0
  2 12  2  0  0  0  0
  3  7  1  0  0  0  0
  3 14  2  0  0  0  0
  4 10  2  0  0  0  0
  4 12  1  0  0  0  0
  5 10  1  0  0  0  0
  5 16  2  0  0  0  0
  6 13  2  0  0  0  0
  6 15  1  0  0  0  0
  7 11  1  0  0  0  0
  7 13  1  0  0  0  0
  8 10  1  0  0  0  0
  8 17  1  0  0  0  0
  9 14  1  0  0  0  0
  9 19  1  0  0  0  0
  9 28  1  0  0  0  0
 11 20  1  0  0  0  0
 12 24  1  0  0  0  0
 13 18  1  0  0  0  0
 14 18  1  0  0  0  0
 15 20  2  0  0  0  0
 15 25  1  0  0  0  0
 16 21  1  0  0  0  0
 16 26  1  0  0  0  0
 17 21  2  0  0  0  0
 17 27  1  0  0  0  0
 18 22  2  0  0  0  0
 19 23  2  0  0  0  0
 19 29  1  0  0  0  0
 20 30  1  0  0  0  0
 21 31  1  0  0  0  0
 22 23  1  0  0  0  0
 22 32  1  0  0  0  0
 23 33  1  0  0  0  0
 24 25  1  0  0  0  0
 24 34  1  0  0  0  0
 24 35  1  0  0  0  0
 25 36  1  0  0  0  0
 25 37  1  0  0  0  0
 26 38  1  0  0  0  0
 26 39  1  0  0  0  0
 26 40  1  0  0  0  0
 27 41  1  0  0  0  0
 27 42  1  0  0  0  0
 27 43  1  0  0  0  0
M  END
> <SCORE>
-1.21869

$$$$
