6KDZ_92_MG_B_802
          06102512283D 1   1.00000     0.00000     0
            
  1  0  0  0  0  0            999 V2000
  -17.4489   -6.3466   10.5097 Mg  0  2  0  0  0  0  0  0  0  0  0  0
M  CHG  1   1   2
M  END
> <SCORE>
-0.2

$$$$
6KDZ_92_MG_B_802
          06102512283D 1   1.00000     0.00000     0
            
  1  0  0  0  0  0            999 V2000
  -17.4489   -6.3466   10.5097 Mg  0  2  0  0  0  0  0  0  0  0  0  0
M  CHG  1   1   2
M  END
> <SCORE>
-0.2

$$$$
6KDZ_92_MG_B_802
          06102512283D 1   1.00000     0.00000     0
            
  1  0  0  0  0  0            999 V2000
  -17.4489   -6.3466   10.5097 Mg  0  2  0  0  0  0  0  0  0  0  0  0
M  CHG  1   1   2
M  END
> <SCORE>
-0.2

$$$$
