6IJI_90_AEL_B_803
          06102512283D 1   1.00000     0.00000     0
            
 53 58  0  0  0  0            999 V2000
  -25.8913  -10.0515    6.5892 O   0  0  0  0  0  0  0  0  0  0  0  0
  -29.5819  -10.9985    8.9876 O   0  0  0  0  0  0  0  0  0  0  0  0
  -27.8192  -15.6786    4.2238 N   0  0  0  0  0  0  0  0  0  0  0  0
  -31.4954  -10.5700    5.1812 N   0  0  0  0  0  0  0  0  0  0  0  0
  -30.3050  -12.3056    4.4435 N   0  0  0  0  0  0  0  0  0  0  0  0
  -27.7362  -10.5091    7.7886 N   0  0  0  0  0  0  0  0  0  0  0  0
  -31.9290  -10.9233    3.9147 C   0  0  0  0  0  0  0  0  0  0  0  0
  -31.1983  -11.9977    3.4392 C   0  0  0  0  0  0  0  0  0  0  0  0
  -29.4536  -13.4542    4.4177 C   0  0  0  0  0  0  0  0  0  0  0  0
  -26.2984  -10.1167   10.1654 C   0  0  0  0  0  0  0  0  0  0  0  0
  -25.5682   -9.9674   11.3531 C   0  0  0  0  0  0  0  0  0  0  0  0
  -25.6444   -9.9890    8.9303 C   0  0  0  0  0  0  0  0  0  0  0  0
  -27.6540  -10.4748   10.2300 C   0  0  0  0  0  0  0  0  0  0  0  0
  -33.2940  -11.0256    1.9368 C   0  0  0  0  0  0  0  0  0  0  0  0
  -29.1341  -15.7793    4.1002 C   0  0  0  0  0  0  0  0  0  0  0  0
  -27.3255  -14.4550    4.4442 C   0  0  0  0  0  0  0  0  0  0  0  0
  -32.9728  -10.4356    3.1517 C   0  0  0  0  0  0  0  0  0  0  0  0
  -29.9808  -14.7056    4.1896 C   0  0  0  0  0  0  0  0  0  0  0  0
  -28.1024  -13.3292    4.5451 C   0  0  0  0  0  0  0  0  0  0  0  0
  -31.4864  -12.6097    2.2352 C   0  0  0  0  0  0  0  0  0  0  0  0
  -24.1876   -9.7320   11.2662 C   0  0  0  0  0  0  0  0  0  0  0  0
  -26.2285  -10.1670   12.5796 C   0  0  0  0  0  0  0  0  0  0  0  0
  -24.2946   -9.7543    8.8888 C   0  0  0  0  0  0  0  0  0  0  0  0
  -28.2553  -10.6741   11.4426 C   0  0  0  0  0  0  0  0  0  0  0  0
  -32.5495  -12.1211    1.5055 C   0  0  0  0  0  0  0  0  0  0  0  0
  -23.5765   -9.6474   10.0603 C   0  0  0  0  0  0  0  0  0  0  0  0
  -27.5353  -10.5184   12.6078 C   0  0  0  0  0  0  0  0  0  0  0  0
  -26.3920  -10.1802    7.6761 C   0  0  0  0  0  0  0  0  0  0  0  0
  -28.4196  -10.6858    8.9884 C   0  0  0  0  0  0  0  0  0  0  0  0
  -30.5333  -11.4149    5.4524 C   0  0  0  0  0  0  0  0  0  0  0  0
  -28.4999  -10.6002    6.5575 C   0  0  0  0  0  0  0  0  0  0  0  0
  -29.7474  -11.4332    6.7133 C   0  0  0  0  0  0  0  0  0  0  0  0
  -34.3956  -10.4619    1.0787 C   0  0  0  0  0  0  0  0  0  0  0  0
  -29.5281  -16.6831    3.9335 H   0  0  0  0  0  0  0  0  0  0  0  0
  -26.3352  -14.3556    4.5407 H   0  0  0  0  0  0  0  0  0  0  0  0
  -33.5011   -9.6515    3.4773 H   0  0  0  0  0  0  0  0  0  0  0  0
  -30.9682  -14.8292    4.0905 H   0  0  0  0  0  0  0  0  0  0  0  0
  -27.6859  -12.4349    4.7089 H   0  0  0  0  0  0  0  0  0  0  0  0
  -30.9427  -13.3808    1.9039 H   0  0  0  0  0  0  0  0  0  0  0  0
  -23.6498   -9.6256   12.1025 H   0  0  0  0  0  0  0  0  0  0  0  0
  -25.7283  -10.0483   13.4373 H   0  0  0  0  0  0  0  0  0  0  0  0
  -23.8306   -9.6606    8.0079 H   0  0  0  0  0  0  0  0  0  0  0  0
  -29.2202  -10.9334   11.4838 H   0  0  0  0  0  0  0  0  0  0  0  0
  -32.7926  -12.5653    0.6432 H   0  0  0  0  0  0  0  0  0  0  0  0
  -22.5875   -9.5050   10.0193 H   0  0  0  0  0  0  0  0  0  0  0  0
  -27.9858  -10.6675   13.4880 H   0  0  0  0  0  0  0  0  0  0  0  0
  -27.9238  -11.0138    5.8525 H   0  0  0  0  0  0  0  0  0  0  0  0
  -28.7631   -9.6780    6.2742 H   0  0  0  0  0  0  0  0  0  0  0  0
  -30.3040  -11.0599    7.4555 H   0  0  0  0  0  0  0  0  0  0  0  0
  -29.4914  -12.3753    6.9301 H   0  0  0  0  0  0  0  0  0  0  0  0
  -34.8171   -9.6844    1.5455 H   0  0  0  0  0  0  0  0  0  0  0  0
  -34.0156  -10.1598    0.2044 H   0  0  0  0  0  0  0  0  0  0  0  0
  -35.0856  -11.1673    0.9163 H   0  0  0  0  0  0  0  0  0  0  0  0
  1 28  2  0  0  0  0
  2 29  2  0  0  0  0
  3 15  2  0  0  0  0
  3 16  1  0  0  0  0
  4  7  1  0  0  0  0
  4 30  2  0  0  0  0
  5  8  1  0  0  0  0
  5  9  1  0  0  0  0
  5 30  1  0  0  0  0
  6 28  1  0  0  0  0
  6 29  1  0  0  0  0
  6 31  1  0  0  0  0
  7  8  2  0  0  0  0
  7 17  1  0  0  0  0
  8 20  1  0  0  0  0
  9 18  2  0  0  0  0
  9 19  1  0  0  0  0
 10 11  2  0  0  0  0
 10 12  1  0  0  0  0
 10 13  1  0  0  0  0
 11 21  1  0  0  0  0
 11 22  1  0  0  0  0
 12 23  2  0  0  0  0
 12 28  1  0  0  0  0
 13 24  2  0  0  0  0
 13 29  1  0  0  0  0
 14 17  2  0  0  0  0
 14 25  1  0  0  0  0
 14 33  1  0  0  0  0
 15 18  1  0  0  0  0
 15 34  1  0  0  0  0
 16 19  2  0  0  0  0
 16 35  1  0  0  0  0
 17 36  1  0  0  0  0
 18 37  1  0  0  0  0
 19 38  1  0  0  0  0
 20 25  2  0  0  0  0
 20 39  1  0  0  0  0
 21 26  2  0  0  0  0
 21 40  1  0  0  0  0
 22 27  2  0  0  0  0
 22 41  1  0  0  0  0
 23 26  1  0  0  0  0
 23 42  1  0  0  0  0
 24 27  1  0  0  0  0
 24 43  1  0  0  0  0
 25 44  1  0  0  0  0
 26 45  1  0  0  0  0
 27 46  1  0  0  0  0
 30 32  1  0  0  0  0
 31 32  1  0  0  0  0
 31 47  1  0  0  0  0
 31 48  1  0  0  0  0
 32 49  1  0  0  0  0
 32 50  1  0  0  0  0
 33 51  1  0  0  0  0
 33 52  1  0  0  0  0
 33 53  1  0  0  0  0
M  END
> <SCORE>
-2.68446

$$$$
6IJI_90_AEL_B_803
          06102512283D 1   1.00000     0.00000     0
            
 53 58  0  0  0  0            999 V2000
  -25.8913  -10.0515    6.5892 O   0  0  0  0  0  0  0  0  0  0  0  0
  -29.5819  -10.9985    8.9876 O   0  0  0  0  0  0  0  0  0  0  0  0
  -27.8192  -15.6786    4.2238 N   0  0  0  0  0  0  0  0  0  0  0  0
  -31.4954  -10.5700    5.1812 N   0  0  0  0  0  0  0  0  0  0  0  0
  -30.3050  -12.3056    4.4435 N   0  0  0  0  0  0  0  0  0  0  0  0
  -27.7362  -10.5091    7.7886 N   0  0  0  0  0  0  0  0  0  0  0  0
  -31.9290  -10.9233    3.9147 C   0  0  0  0  0  0  0  0  0  0  0  0
  -31.1983  -11.9977    3.4392 C   0  0  0  0  0  0  0  0  0  0  0  0
  -29.4536  -13.4542    4.4177 C   0  0  0  0  0  0  0  0  0  0  0  0
  -26.2984  -10.1167   10.1654 C   0  0  0  0  0  0  0  0  0  0  0  0
  -25.5682   -9.9674   11.3531 C   0  0  0  0  0  0  0  0  0  0  0  0
  -25.6444   -9.9890    8.9303 C   0  0  0  0  0  0  0  0  0  0  0  0
  -27.6540  -10.4748   10.2300 C   0  0  0  0  0  0  0  0  0  0  0  0
  -33.2940  -11.0256    1.9368 C   0  0  0  0  0  0  0  0  0  0  0  0
  -29.1341  -15.7793    4.1002 C   0  0  0  0  0  0  0  0  0  0  0  0
  -27.3255  -14.4550    4.4442 C   0  0  0  0  0  0  0  0  0  0  0  0
  -32.9728  -10.4356    3.1517 C   0  0  0  0  0  0  0  0  0  0  0  0
  -29.9808  -14.7056    4.1896 C   0  0  0  0  0  0  0  0  0  0  0  0
  -28.1024  -13.3292    4.5451 C   0  0  0  0  0  0  0  0  0  0  0  0
  -31.4864  -12.6097    2.2352 C   0  0  0  0  0  0  0  0  0  0  0  0
  -24.1876   -9.7320   11.2662 C   0  0  0  0  0  0  0  0  0  0  0  0
  -26.2285  -10.1670   12.5796 C   0  0  0  0  0  0  0  0  0  0  0  0
  -24.2946   -9.7543    8.8888 C   0  0  0  0  0  0  0  0  0  0  0  0
  -28.2553  -10.6741   11.4426 C   0  0  0  0  0  0  0  0  0  0  0  0
  -32.5495  -12.1211    1.5055 C   0  0  0  0  0  0  0  0  0  0  0  0
  -23.5765   -9.6474   10.0603 C   0  0  0  0  0  0  0  0  0  0  0  0
  -27.5353  -10.5184   12.6078 C   0  0  0  0  0  0  0  0  0  0  0  0
  -26.3920  -10.1802    7.6761 C   0  0  0  0  0  0  0  0  0  0  0  0
  -28.4196  -10.6858    8.9884 C   0  0  0  0  0  0  0  0  0  0  0  0
  -30.5333  -11.4149    5.4524 C   0  0  0  0  0  0  0  0  0  0  0  0
  -28.4999  -10.6002    6.5575 C   0  0  0  0  0  0  0  0  0  0  0  0
  -29.7474  -11.4332    6.7133 C   0  0  0  0  0  0  0  0  0  0  0  0
  -34.3956  -10.4619    1.0787 C   0  0  0  0  0  0  0  0  0  0  0  0
  -29.5281  -16.6831    3.9335 H   0  0  0  0  0  0  0  0  0  0  0  0
  -26.3352  -14.3556    4.5407 H   0  0  0  0  0  0  0  0  0  0  0  0
  -33.5011   -9.6515    3.4773 H   0  0  0  0  0  0  0  0  0  0  0  0
  -30.9682  -14.8292    4.0905 H   0  0  0  0  0  0  0  0  0  0  0  0
  -27.6859  -12.4349    4.7089 H   0  0  0  0  0  0  0  0  0  0  0  0
  -30.9427  -13.3808    1.9039 H   0  0  0  0  0  0  0  0  0  0  0  0
  -23.6498   -9.6256   12.1025 H   0  0  0  0  0  0  0  0  0  0  0  0
  -25.7283  -10.0483   13.4373 H   0  0  0  0  0  0  0  0  0  0  0  0
  -23.8306   -9.6606    8.0079 H   0  0  0  0  0  0  0  0  0  0  0  0
  -29.2202  -10.9334   11.4838 H   0  0  0  0  0  0  0  0  0  0  0  0
  -32.7926  -12.5653    0.6432 H   0  0  0  0  0  0  0  0  0  0  0  0
  -22.5875   -9.5050   10.0193 H   0  0  0  0  0  0  0  0  0  0  0  0
  -27.9858  -10.6675   13.4880 H   0  0  0  0  0  0  0  0  0  0  0  0
  -27.9238  -11.0138    5.8525 H   0  0  0  0  0  0  0  0  0  0  0  0
  -28.7631   -9.6780    6.2742 H   0  0  0  0  0  0  0  0  0  0  0  0
  -30.3040  -11.0599    7.4555 H   0  0  0  0  0  0  0  0  0  0  0  0
  -29.4914  -12.3753    6.9301 H   0  0  0  0  0  0  0  0  0  0  0  0
  -34.8171   -9.6844    1.5455 H   0  0  0  0  0  0  0  0  0  0  0  0
  -34.0156  -10.1598    0.2044 H   0  0  0  0  0  0  0  0  0  0  0  0
  -35.0856  -11.1673    0.9163 H   0  0  0  0  0  0  0  0  0  0  0  0
  1 28  2  0  0  0  0
  2 29  2  0  0  0  0
  3 15  2  0  0  0  0
  3 16  1  0  0  0  0
  4  7  1  0  0  0  0
  4 30  2  0  0  0  0
  5  8  1  0  0  0  0
  5  9  1  0  0  0  0
  5 30  1  0  0  0  0
  6 28  1  0  0  0  0
  6 29  1  0  0  0  0
  6 31  1  0  0  0  0
  7  8  2  0  0  0  0
  7 17  1  0  0  0  0
  8 20  1  0  0  0  0
  9 18  2  0  0  0  0
  9 19  1  0  0  0  0
 10 11  2  0  0  0  0
 10 12  1  0  0  0  0
 10 13  1  0  0  0  0
 11 21  1  0  0  0  0
 11 22  1  0  0  0  0
 12 23  2  0  0  0  0
 12 28  1  0  0  0  0
 13 24  2  0  0  0  0
 13 29  1  0  0  0  0
 14 17  2  0  0  0  0
 14 25  1  0  0  0  0
 14 33  1  0  0  0  0
 15 18  1  0  0  0  0
 15 34  1  0  0  0  0
 16 19  2  0  0  0  0
 16 35  1  0  0  0  0
 17 36  1  0  0  0  0
 18 37  1  0  0  0  0
 19 38  1  0  0  0  0
 20 25  2  0  0  0  0
 20 39  1  0  0  0  0
 21 26  2  0  0  0  0
 21 40  1  0  0  0  0
 22 27  2  0  0  0  0
 22 41  1  0  0  0  0
 23 26  1  0  0  0  0
 23 42  1  0  0  0  0
 24 27  1  0  0  0  0
 24 43  1  0  0  0  0
 25 44  1  0  0  0  0
 26 45  1  0  0  0  0
 27 46  1  0  0  0  0
 30 32  1  0  0  0  0
 31 32  1  0  0  0  0
 31 47  1  0  0  0  0
 31 48  1  0  0  0  0
 32 49  1  0  0  0  0
 32 50  1  0  0  0  0
 33 51  1  0  0  0  0
 33 52  1  0  0  0  0
 33 53  1  0  0  0  0
M  END
> <SCORE>
-2.68446

$$$$
6IJI_90_AEL_B_803
          06102512283D 1   1.00000     0.00000     0
            
 53 58  0  0  0  0            999 V2000
  -25.8913  -10.0515    6.5892 O   0  0  0  0  0  0  0  0  0  0  0  0
  -29.5819  -10.9985    8.9876 O   0  0  0  0  0  0  0  0  0  0  0  0
  -27.8192  -15.6786    4.2238 N   0  0  0  0  0  0  0  0  0  0  0  0
  -31.4954  -10.5700    5.1812 N   0  0  0  0  0  0  0  0  0  0  0  0
  -30.3050  -12.3056    4.4435 N   0  0  0  0  0  0  0  0  0  0  0  0
  -27.7362  -10.5091    7.7886 N   0  0  0  0  0  0  0  0  0  0  0  0
  -31.9290  -10.9233    3.9147 C   0  0  0  0  0  0  0  0  0  0  0  0
  -31.1983  -11.9977    3.4392 C   0  0  0  0  0  0  0  0  0  0  0  0
  -29.4536  -13.4542    4.4177 C   0  0  0  0  0  0  0  0  0  0  0  0
  -26.2984  -10.1167   10.1654 C   0  0  0  0  0  0  0  0  0  0  0  0
  -25.5682   -9.9674   11.3531 C   0  0  0  0  0  0  0  0  0  0  0  0
  -25.6444   -9.9890    8.9303 C   0  0  0  0  0  0  0  0  0  0  0  0
  -27.6540  -10.4748   10.2300 C   0  0  0  0  0  0  0  0  0  0  0  0
  -33.2940  -11.0256    1.9368 C   0  0  0  0  0  0  0  0  0  0  0  0
  -29.1341  -15.7793    4.1002 C   0  0  0  0  0  0  0  0  0  0  0  0
  -27.3255  -14.4550    4.4442 C   0  0  0  0  0  0  0  0  0  0  0  0
  -32.9728  -10.4356    3.1517 C   0  0  0  0  0  0  0  0  0  0  0  0
  -29.9808  -14.7056    4.1896 C   0  0  0  0  0  0  0  0  0  0  0  0
  -28.1024  -13.3292    4.5451 C   0  0  0  0  0  0  0  0  0  0  0  0
  -31.4864  -12.6097    2.2352 C   0  0  0  0  0  0  0  0  0  0  0  0
  -24.1876   -9.7320   11.2662 C   0  0  0  0  0  0  0  0  0  0  0  0
  -26.2285  -10.1670   12.5796 C   0  0  0  0  0  0  0  0  0  0  0  0
  -24.2946   -9.7543    8.8888 C   0  0  0  0  0  0  0  0  0  0  0  0
  -28.2553  -10.6741   11.4426 C   0  0  0  0  0  0  0  0  0  0  0  0
  -32.5495  -12.1211    1.5055 C   0  0  0  0  0  0  0  0  0  0  0  0
  -23.5765   -9.6474   10.0603 C   0  0  0  0  0  0  0  0  0  0  0  0
  -27.5353  -10.5184   12.6078 C   0  0  0  0  0  0  0  0  0  0  0  0
  -26.3920  -10.1802    7.6761 C   0  0  0  0  0  0  0  0  0  0  0  0
  -28.4196  -10.6858    8.9884 C   0  0  0  0  0  0  0  0  0  0  0  0
  -30.5333  -11.4149    5.4524 C   0  0  0  0  0  0  0  0  0  0  0  0
  -28.4999  -10.6002    6.5575 C   0  0  0  0  0  0  0  0  0  0  0  0
  -29.7474  -11.4332    6.7133 C   0  0  0  0  0  0  0  0  0  0  0  0
  -34.3956  -10.4619    1.0787 C   0  0  0  0  0  0  0  0  0  0  0  0
  -29.5281  -16.6831    3.9335 H   0  0  0  0  0  0  0  0  0  0  0  0
  -26.3352  -14.3556    4.5407 H   0  0  0  0  0  0  0  0  0  0  0  0
  -33.5011   -9.6515    3.4773 H   0  0  0  0  0  0  0  0  0  0  0  0
  -30.9682  -14.8292    4.0905 H   0  0  0  0  0  0  0  0  0  0  0  0
  -27.6859  -12.4349    4.7089 H   0  0  0  0  0  0  0  0  0  0  0  0
  -30.9427  -13.3808    1.9039 H   0  0  0  0  0  0  0  0  0  0  0  0
  -23.6498   -9.6256   12.1025 H   0  0  0  0  0  0  0  0  0  0  0  0
  -25.7283  -10.0483   13.4373 H   0  0  0  0  0  0  0  0  0  0  0  0
  -23.8306   -9.6606    8.0079 H   0  0  0  0  0  0  0  0  0  0  0  0
  -29.2202  -10.9334   11.4838 H   0  0  0  0  0  0  0  0  0  0  0  0
  -32.7926  -12.5653    0.6432 H   0  0  0  0  0  0  0  0  0  0  0  0
  -22.5875   -9.5050   10.0193 H   0  0  0  0  0  0  0  0  0  0  0  0
  -27.9858  -10.6675   13.4880 H   0  0  0  0  0  0  0  0  0  0  0  0
  -27.9238  -11.0138    5.8525 H   0  0  0  0  0  0  0  0  0  0  0  0
  -28.7631   -9.6780    6.2742 H   0  0  0  0  0  0  0  0  0  0  0  0
  -30.3040  -11.0599    7.4555 H   0  0  0  0  0  0  0  0  0  0  0  0
  -29.4914  -12.3753    6.9301 H   0  0  0  0  0  0  0  0  0  0  0  0
  -34.8171   -9.6844    1.5455 H   0  0  0  0  0  0  0  0  0  0  0  0
  -34.0156  -10.1598    0.2044 H   0  0  0  0  0  0  0  0  0  0  0  0
  -35.0856  -11.1673    0.9163 H   0  0  0  0  0  0  0  0  0  0  0  0
  1 28  2  0  0  0  0
  2 29  2  0  0  0  0
  3 15  2  0  0  0  0
  3 16  1  0  0  0  0
  4  7  1  0  0  0  0
  4 30  2  0  0  0  0
  5  8  1  0  0  0  0
  5  9  1  0  0  0  0
  5 30  1  0  0  0  0
  6 28  1  0  0  0  0
  6 29  1  0  0  0  0
  6 31  1  0  0  0  0
  7  8  2  0  0  0  0
  7 17  1  0  0  0  0
  8 20  1  0  0  0  0
  9 18  2  0  0  0  0
  9 19  1  0  0  0  0
 10 11  2  0  0  0  0
 10 12  1  0  0  0  0
 10 13  1  0  0  0  0
 11 21  1  0  0  0  0
 11 22  1  0  0  0  0
 12 23  2  0  0  0  0
 12 28  1  0  0  0  0
 13 24  2  0  0  0  0
 13 29  1  0  0  0  0
 14 17  2  0  0  0  0
 14 25  1  0  0  0  0
 14 33  1  0  0  0  0
 15 18  1  0  0  0  0
 15 34  1  0  0  0  0
 16 19  2  0  0  0  0
 16 35  1  0  0  0  0
 17 36  1  0  0  0  0
 18 37  1  0  0  0  0
 19 38  1  0  0  0  0
 20 25  2  0  0  0  0
 20 39  1  0  0  0  0
 21 26  2  0  0  0  0
 21 40  1  0  0  0  0
 22 27  2  0  0  0  0
 22 41  1  0  0  0  0
 23 26  1  0  0  0  0
 23 42  1  0  0  0  0
 24 27  1  0  0  0  0
 24 43  1  0  0  0  0
 25 44  1  0  0  0  0
 26 45  1  0  0  0  0
 27 46  1  0  0  0  0
 30 32  1  0  0  0  0
 31 32  1  0  0  0  0
 31 47  1  0  0  0  0
 31 48  1  0  0  0  0
 32 49  1  0  0  0  0
 32 50  1  0  0  0  0
 33 51  1  0  0  0  0
 33 52  1  0  0  0  0
 33 53  1  0  0  0  0
M  END
> <SCORE>
-2.68446

$$$$
